@<TRIPOS>MOLECULE
RES
468 546 1 0 1
SMALL
NO_CHARGES
@<TRIPOS>CRYSIN
   42.4760    37.8331    13.5258    90.0000    90.0000    90.0000  1  1
@<TRIPOS>ATOM
       1 Al          16.8025    16.4166     1.9370 Al            1 RES     
       2 Al           7.3149    32.8496     1.9370 Al            1 RES     
       3 Al          35.7777    16.4166     1.9370 Al            1 RES     
       4 Al          26.2901    32.8496     1.9370 Al            1 RES     
       5 Al          15.3320     6.3431     1.9370 Al            1 RES     
       6 Al           5.8444    22.7761     1.9370 Al            1 RES     
       7 Al          34.3072     6.3431     1.9370 Al            1 RES     
       8 Al          24.8196    22.7761     1.9370 Al            1 RES     
       9 Al           5.8159    10.1063     1.9370 Al            1 RES     
      10 Al          24.7911    10.1063     1.9370 Al            1 RES     
      11 Al          15.3035    26.5393     1.9370 Al            1 RES     
      12 Al          34.2787    26.5393     1.9370 Al            1 RES     
      13 Al          11.6603     0.0164     5.9892 Al            1 RES     
      14 Al           2.1727    16.4494     5.9892 Al            1 RES     
      15 Al          30.6355     0.0164     5.9892 Al            1 RES     
      16 Al          21.1479    16.4494     5.9892 Al            1 RES     
      17 Al          13.1308    10.0899     5.9892 Al            1 RES     
      18 Al           3.6432    26.5229     5.9892 Al            1 RES     
      19 Al          32.1060    10.0899     5.9892 Al            1 RES     
      20 Al          22.6184    26.5229     5.9892 Al            1 RES     
      21 Al           3.6717     6.3267     5.9892 Al            1 RES     
      22 Al          22.6469     6.3267     5.9892 Al            1 RES     
      23 Al          13.1593    22.7597     5.9892 Al            1 RES     
      24 Al          32.1345    22.7597     5.9892 Al            1 RES     
      25 Al           1.1480    13.5901     1.6533 Al            1 RES     
      26 Al          20.1232    13.5901     1.6533 Al            1 RES     
      27 Al          10.6356    30.0231     1.6533 Al            1 RES     
      28 Al          29.6108    30.0231     1.6533 Al            1 RES     
      29 Al          16.1194    10.6322     1.6533 Al            1 RES     
      30 Al           6.6318    27.0652     1.6533 Al            1 RES     
      31 Al          35.0946    10.6322     1.6533 Al            1 RES     
      32 Al          25.6070    27.0652     1.6533 Al            1 RES     
      33 Al           1.7078     8.6438     1.6533 Al            1 RES     
      34 Al          20.6830     8.6438     1.6533 Al            1 RES     
      35 Al          11.1954    25.0768     1.6533 Al            1 RES     
      36 Al          30.1706    25.0768     1.6533 Al            1 RES     
      37 Al           8.3396     2.8429     5.7055 Al            1 RES     
      38 Al          27.3148     2.8429     5.7055 Al            1 RES     
      39 Al          17.8272    19.2759     5.7055 Al            1 RES     
      40 Al          36.8024    19.2759     5.7055 Al            1 RES     
      41 Al          12.3434     5.8009     5.7055 Al            1 RES     
      42 Al           2.8558    22.2339     5.7055 Al            1 RES     
      43 Al          31.3186     5.8009     5.7055 Al            1 RES     
      44 Al          21.8310    22.2339     5.7055 Al            1 RES     
      45 Al           7.7798     7.7892     5.7055 Al            1 RES     
      46 Al          26.7550     7.7892     5.7055 Al            1 RES     
      47 Al          17.2674    24.2223     5.7055 Al            1 RES     
      48 Al          36.2426    24.2223     5.7055 Al            1 RES     
      49 Al          10.8064     2.7772     1.6047 Al            1 RES     
      50 Al           1.3188    19.2102     1.6047 Al            1 RES     
      51 Al          29.7816     2.7772     1.6047 Al            1 RES     
      52 Al          20.2940    19.2102     1.6047 Al            1 RES     
      53 Al          11.1669     7.9700     1.6047 Al            1 RES     
      54 Al           1.6793    24.4030     1.6047 Al            1 RES     
      55 Al          30.1421     7.9700     1.6047 Al            1 RES     
      56 Al          20.6545    24.4030     1.6047 Al            1 RES     
      57 Al           6.4895     5.6858     1.6047 Al            1 RES     
      58 Al          25.4647     5.6858     1.6047 Al            1 RES     
      59 Al          15.9771    22.1188     1.6047 Al            1 RES     
      60 Al          34.9523    22.1188     1.6047 Al            1 RES     
      61 Al          17.6564    13.6558     5.6569 Al            1 RES     
      62 Al           8.1688    30.0888     5.6569 Al            1 RES     
      63 Al          36.6316    13.6558     5.6569 Al            1 RES     
      64 Al          27.1440    30.0888     5.6569 Al            1 RES     
      65 Al          17.2959     8.4630     5.6569 Al            1 RES     
      66 Al           7.8083    24.8960     5.6569 Al            1 RES     
      67 Al          36.2711     8.4630     5.6569 Al            1 RES     
      68 Al          26.7835    24.8960     5.6569 Al            1 RES     
      69 Al           2.9981    10.7472     5.6569 Al            1 RES     
      70 Al          21.9733    10.7472     5.6569 Al            1 RES     
      71 Al          12.4857    27.1802     5.6569 Al            1 RES     
      72 Al          31.4609    27.1802     5.6569 Al            1 RES     
      73 P            0.9582    16.4166     2.9014 P             1 RES     
      74 P           19.9334    16.4166     2.9014 P             1 RES     
      75 P           10.4458    32.8496     2.9014 P             1 RES     
      76 P           29.4210    32.8496     2.9014 P             1 RES     
      77 P           13.7665     9.0546     2.9014 P             1 RES     
      78 P            4.2789    25.4876     2.9014 P             1 RES     
      79 P           32.7417     9.0546     2.9014 P             1 RES     
      80 P           23.2541    25.4876     2.9014 P             1 RES     
      81 P            4.2504     7.3949     2.9014 P             1 RES     
      82 P           23.2256     7.3949     2.9014 P             1 RES     
      83 P           13.7380    23.8279     2.9014 P             1 RES     
      84 P           32.7132    23.8279     2.9014 P             1 RES     
      85 P            8.5294     0.0164     6.9536 P             1 RES     
      86 P           27.5046     0.0164     6.9536 P             1 RES     
      87 P           18.0170    16.4494     6.9536 P             1 RES     
      88 P           36.9922    16.4494     6.9536 P             1 RES     
      89 P           14.6963     7.3784     6.9536 P             1 RES     
      90 P            5.2087    23.8114     6.9536 P             1 RES     
      91 P           33.6715     7.3784     6.9536 P             1 RES     
      92 P           24.1839    23.8114     6.9536 P             1 RES     
      93 P            5.2372     9.0382     6.9536 P             1 RES     
      94 P           24.2124     9.0382     6.9536 P             1 RES     
      95 P           14.7248    25.4712     6.9536 P             1 RES     
      96 P           33.7000    25.4712     6.9536 P             1 RES     
      97 P           17.1441    13.3929     2.5934 P             1 RES     
      98 P            7.6565    29.8259     2.5934 P             1 RES     
      99 P           36.1193    13.3929     2.5934 P             1 RES     
     100 P           26.6317    29.8259     2.5934 P             1 RES     
     101 P           17.7798     8.1508     2.5934 P             1 RES     
     102 P            8.2922    24.5838     2.5934 P             1 RES     
     103 P           36.7550     8.1508     2.5934 P             1 RES     
     104 P           27.2674    24.5838     2.5934 P             1 RES     
     105 P            3.0265    11.3223     2.5934 P             1 RES     
     106 P           22.0017    11.3223     2.5934 P             1 RES     
     107 P           12.5141    27.7553     2.5934 P             1 RES     
     108 P           31.4893    27.7553     2.5934 P             1 RES     
     109 P           11.3187     3.0401     6.6456 P             1 RES     
     110 P            1.8311    19.4731     6.6456 P             1 RES     
     111 P           30.2939     3.0401     6.6456 P             1 RES     
     112 P           20.8063    19.4731     6.6456 P             1 RES     
     113 P           10.6830     8.2822     6.6456 P             1 RES     
     114 P            1.1954    24.7152     6.6456 P             1 RES     
     115 P           29.6582     8.2822     6.6456 P             1 RES     
     116 P           20.1706    24.7152     6.6456 P             1 RES     
     117 P            6.4611     5.1107     6.6456 P             1 RES     
     118 P           25.4363     5.1107     6.6456 P             1 RES     
     119 P           15.9487    21.5437     6.6456 P             1 RES     
     120 P           34.9239    21.5437     6.6456 P             1 RES     
     121 P            7.8652     3.0401     2.5043 P             1 RES     
     122 P           26.8404     3.0401     2.5043 P             1 RES     
     123 P           17.3528    19.4731     2.5043 P             1 RES     
     124 P           36.3280    19.4731     2.5043 P             1 RES     
     125 P           12.4098     5.2914     2.5043 P             1 RES     
     126 P            2.9222    21.7244     2.5043 P             1 RES     
     127 P           31.3850     5.2914     2.5043 P             1 RES     
     128 P           21.8974    21.7244     2.5043 P             1 RES     
     129 P            8.1878     8.1015     2.5043 P             1 RES     
     130 P           27.1630     8.1015     2.5043 P             1 RES     
     131 P           17.6754    24.5345     2.5043 P             1 RES     
     132 P           36.6506    24.5345     2.5043 P             1 RES     
     133 P            1.6224    13.3929     6.5565 P             1 RES     
     134 P           20.5976    13.3929     6.5565 P             1 RES     
     135 P           11.1100    29.8259     6.5565 P             1 RES     
     136 P           30.0852    29.8259     6.5565 P             1 RES     
     137 P           16.0530    11.1416     6.5565 P             1 RES     
     138 P            6.5654    27.5746     6.5565 P             1 RES     
     139 P           35.0282    11.1416     6.5565 P             1 RES     
     140 P           25.5406    27.5746     6.5565 P             1 RES     
     141 P            1.2998     8.3315     6.5565 P             1 RES     
     142 P           20.2750     8.3315     6.5565 P             1 RES     
     143 P           10.7874    24.7645     6.5565 P             1 RES     
     144 P           29.7626    24.7645     6.5565 P             1 RES     
     145 O            8.9089     0.0164     2.7474 O             1 RES     
     146 O           27.8841     0.0164     2.7474 O             1 RES     
     147 O           18.3965    16.4494     2.7474 O             1 RES     
     148 O           37.3717    16.4494     2.7474 O             1 RES     
     149 O           14.5065     7.7071     2.7474 O             1 RES     
     150 O            5.0189    24.1401     2.7474 O             1 RES     
     151 O           33.4817     7.7071     2.7474 O             1 RES     
     152 O           23.9941    24.1401     2.7474 O             1 RES     
     153 O            5.0474     8.7095     2.7474 O             1 RES     
     154 O           24.0226     8.7095     2.7474 O             1 RES     
     155 O           14.5350    25.1425     2.7474 O             1 RES     
     156 O           33.5102    25.1425     2.7474 O             1 RES     
     157 O            0.5787    16.4166     6.7996 O             1 RES     
     158 O           19.5539    16.4166     6.7996 O             1 RES     
     159 O           10.0663    32.8496     6.7996 O             1 RES     
     160 O           29.0415    32.8496     6.7996 O             1 RES     
     161 O           13.9563     8.7259     6.7996 O             1 RES     
     162 O            4.4687    25.1589     6.7996 O             1 RES     
     163 O           32.9315     8.7259     6.7996 O             1 RES     
     164 O           23.4439    25.1589     6.7996 O             1 RES     
     165 O            4.4402     7.7235     6.7996 O             1 RES     
     166 O           23.4154     7.7235     6.7996 O             1 RES     
     167 O           13.9278    24.1565     6.7996 O             1 RES     
     168 O           32.9030    24.1565     6.7996 O             1 RES     
     169 O            8.0929     0.1479     0.2999 O             1 RES     
     170 O           27.0681     0.1479     0.2999 O             1 RES     
     171 O           17.5805    16.5809     0.2999 O             1 RES     
     172 O           36.5557    16.5809     0.2999 O             1 RES     
     173 O           14.8007     6.9347     0.2999 O             1 RES     
     174 O            5.3131    23.3677     0.2999 O             1 RES     
     175 O           33.7759     6.9347     0.2999 O             1 RES     
     176 O           24.2883    23.3677     0.2999 O             1 RES     
     177 O            5.5692     9.3504     0.2999 O             1 RES     
     178 O           24.5444     9.3504     0.2999 O             1 RES     
     179 O           15.0568    25.7834     0.2999 O             1 RES     
     180 O           34.0320    25.7834     0.2999 O             1 RES     
     181 O            1.3947    16.2851     4.3521 O             1 RES     
     182 O           20.3699    16.2851     4.3521 O             1 RES     
     183 O           10.8823    32.7181     4.3521 O             1 RES     
     184 O           29.8575    32.7181     4.3521 O             1 RES     
     185 O           13.6621     9.4983     4.3521 O             1 RES     
     186 O            4.1745    25.9313     4.3521 O             1 RES     
     187 O           32.6373     9.4983     4.3521 O             1 RES     
     188 O           23.1497    25.9313     4.3521 O             1 RES     
     189 O            3.9184     7.0826     4.3521 O             1 RES     
     190 O           22.8936     7.0826     4.3521 O             1 RES     
     191 O           13.4060    23.5156     4.3521 O             1 RES     
     192 O           32.3812    23.5156     4.3521 O             1 RES     
     193 O           16.6602    14.5925     1.8073 O             1 RES     
     194 O            7.1726    31.0255     1.8073 O             1 RES     
     195 O           35.6354    14.5925     1.8073 O             1 RES     
     196 O           26.1478    31.0255     1.8073 O             1 RES     
     197 O           16.9828     7.1319     1.8073 O             1 RES     
     198 O            7.4952    23.5649     1.8073 O             1 RES     
     199 O           35.9580     7.1319     1.8073 O             1 RES     
     200 O           26.4704    23.5649     1.8073 O             1 RES     
     201 O            4.3074    11.1416     1.8073 O             1 RES     
     202 O           23.2826    11.1416     1.8073 O             1 RES     
     203 O           13.7950    27.5746     1.8073 O             1 RES     
     204 O           32.7702    27.5746     1.8073 O             1 RES     
     205 O           11.8026     1.8405     5.8595 O             1 RES     
     206 O            2.3150    18.2735     5.8595 O             1 RES     
     207 O           30.7778     1.8405     5.8595 O             1 RES     
     208 O           21.2902    18.2735     5.8595 O             1 RES     
     209 O           11.4800     9.3011     5.8595 O             1 RES     
     210 O            1.9924    25.7341     5.8595 O             1 RES     
     211 O           30.4552     9.3011     5.8595 O             1 RES     
     212 O           20.9676    25.7341     5.8595 O             1 RES     
     213 O            5.1802     5.2914     5.8595 O             1 RES     
     214 O           24.1554     5.2914     5.8595 O             1 RES     
     215 O           14.6678    21.7244     5.8595 O             1 RES     
     216 O           33.6430    21.7244     5.8595 O             1 RES     
     217 O            7.1062     1.8241     2.0666 O             1 RES     
     218 O           26.0814     1.8241     2.0666 O             1 RES     
     219 O           16.5938    18.2571     2.0666 O             1 RES     
     220 O           35.5690    18.2571     2.0666 O             1 RES     
     221 O           13.8424     5.2421     2.0666 O             1 RES     
     222 O            4.3548    21.6751     2.0666 O             1 RES     
     223 O           32.8176     5.2421     2.0666 O             1 RES     
     224 O           23.3300    21.6751     2.0666 O             1 RES     
     225 O            7.5142     9.3668     2.0666 O             1 RES     
     226 O           26.4894     9.3668     2.0666 O             1 RES     
     227 O           17.0018    25.7998     2.0666 O             1 RES     
     228 O           35.9770    25.7998     2.0666 O             1 RES     
     229 O            2.3814    14.6089     6.1188 O             1 RES     
     230 O           21.3566    14.6089     6.1188 O             1 RES     
     231 O           11.8690    31.0420     6.1188 O             1 RES     
     232 O           30.8442    31.0420     6.1188 O             1 RES     
     233 O           14.6204    11.1909     6.1188 O             1 RES     
     234 O            5.1328    27.6239     6.1188 O             1 RES     
     235 O           33.5956    11.1909     6.1188 O             1 RES     
     236 O           24.1080    27.6239     6.1188 O             1 RES     
     237 O            1.9734     7.0662     6.1188 O             1 RES     
     238 O           20.9486     7.0662     6.1188 O             1 RES     
     239 O           11.4610    23.4992     6.1188 O             1 RES     
     240 O           30.4362    23.4992     6.1188 O             1 RES     
     241 O            1.4611    15.2170     2.1396 O             1 RES     
     242 O           20.4363    15.2170     2.1396 O             1 RES     
     243 O           10.9487    31.6500     2.1396 O             1 RES     
     244 O           29.9239    31.6500     2.1396 O             1 RES     
     245 O           14.5540    10.0899     2.1396 O             1 RES     
     246 O            5.0664    26.5229     2.1396 O             1 RES     
     247 O           33.5292    10.0899     2.1396 O             1 RES     
     248 O           24.0416    26.5229     2.1396 O             1 RES     
     249 O            2.9601     7.5592     2.1396 O             1 RES     
     250 O           21.9353     7.5592     2.1396 O             1 RES     
     251 O           12.4477    23.9922     2.1396 O             1 RES     
     252 O           31.4229    23.9922     2.1396 O             1 RES     
     253 O            8.0265     1.2160     6.1918 O             1 RES     
     254 O           27.0017     1.2160     6.1918 O             1 RES     
     255 O           17.5141    17.6490     6.1918 O             1 RES     
     256 O           36.4893    17.6490     6.1918 O             1 RES     
     257 O           13.9088     6.3431     6.1918 O             1 RES     
     258 O            4.4212    22.7761     6.1918 O             1 RES     
     259 O           32.8840     6.3431     6.1918 O             1 RES     
     260 O           23.3964    22.7761     6.1918 O             1 RES     
     261 O            6.5275     8.8738     6.1918 O             1 RES     
     262 O           25.5027     8.8738     6.1918 O             1 RES     
     263 O           16.0151    25.3068     6.1918 O             1 RES     
     264 O           34.9903    25.3068     6.1918 O             1 RES     
     265 O           11.0625     1.1832     2.2530 O             1 RES     
     266 O            1.5749    17.6162     2.2530 O             1 RES     
     267 O           30.0377     1.1832     2.2530 O             1 RES     
     268 O           20.5501    17.6162     2.2530 O             1 RES     
     269 O           12.4193     8.9889     2.2530 O             1 RES     
     270 O            2.9317    25.4219     2.2530 O             1 RES     
     271 O           31.3945     8.9889     2.2530 O             1 RES     
     272 O           21.9069    25.4219     2.2530 O             1 RES     
     273 O            4.9810     6.2610     2.2530 O             1 RES     
     274 O           23.9562     6.2610     2.2530 O             1 RES     
     275 O           14.4686    22.6940     2.2530 O             1 RES     
     276 O           33.4438    22.6940     2.2530 O             1 RES     
     277 O           17.4003    15.2498     6.3052 O             1 RES     
     278 O            7.9127    31.6828     6.3052 O             1 RES     
     279 O           36.3755    15.2498     6.3052 O             1 RES     
     280 O           26.8879    31.6828     6.3052 O             1 RES     
     281 O           16.0435     7.4442     6.3052 O             1 RES     
     282 O            6.5559    23.8772     6.3052 O             1 RES     
     283 O           35.0187     7.4442     6.3052 O             1 RES     
     284 O           25.5311    23.8772     6.3052 O             1 RES     
     285 O            4.5066    10.1720     6.3052 O             1 RES     
     286 O           23.4818    10.1720     6.3052 O             1 RES     
     287 O           13.9942    26.6050     6.3052 O             1 RES     
     288 O           32.9694    26.6050     6.3052 O             1 RES     
     289 O            2.4193    12.6370     2.2692 O             1 RES     
     290 O           21.3945    12.6370     2.2692 O             1 RES     
     291 O           11.9069    29.0700     2.2692 O             1 RES     
     292 O           30.8821    29.0700     2.2692 O             1 RES     
     293 O           16.3092    12.2097     2.2692 O             1 RES     
     294 O            6.8216    28.6427     2.2692 O             1 RES     
     295 O           35.2844    12.2097     2.2692 O             1 RES     
     296 O           25.7968    28.6427     2.2692 O             1 RES     
     297 O            0.2467     8.0193     2.2692 O             1 RES     
     298 O           19.2219     8.0193     2.2692 O             1 RES     
     299 O            9.7343    24.4523     2.2692 O             1 RES     
     300 O           28.7095    24.4523     2.2692 O             1 RES     
     301 O            7.0683     3.7960     6.3214 O             1 RES     
     302 O           26.0435     3.7960     6.3214 O             1 RES     
     303 O           16.5559    20.2290     6.3214 O             1 RES     
     304 O           35.5311    20.2290     6.3214 O             1 RES     
     305 O           12.1536     4.2233     6.3214 O             1 RES     
     306 O            2.6660    20.6563     6.3214 O             1 RES     
     307 O           31.1288     4.2233     6.3214 O             1 RES     
     308 O           21.6412    20.6563     6.3214 O             1 RES     
     309 O            9.2409     8.4137     6.3214 O             1 RES     
     310 O           28.2161     8.4137     6.3214 O             1 RES     
     311 O           18.7285    24.8467     6.3214 O             1 RES     
     312 O           37.7037    24.8467     6.3214 O             1 RES     
     313 O           18.6147    13.0478     2.2692 O             1 RES     
     314 O            9.1271    29.4808     2.2692 O             1 RES     
     315 O           37.5899    13.0478     2.2692 O             1 RES     
     316 O           28.1023    29.4808     2.2692 O             1 RES     
     317 O           17.3433     9.5969     2.2692 O             1 RES     
     318 O            7.8557    26.0299     2.2692 O             1 RES     
     319 O           36.3185     9.5969     2.2692 O             1 RES     
     320 O           26.8309    26.0299     2.2692 O             1 RES     
     321 O            1.9924    10.2213     2.2692 O             1 RES     
     322 O           20.9676    10.2213     2.2692 O             1 RES     
     323 O           11.4800    26.6543     2.2692 O             1 RES     
     324 O           30.4552    26.6543     2.2692 O             1 RES     
     325 O            9.8481     3.3852     6.3214 O             1 RES     
     326 O            0.3605    19.8182     6.3214 O             1 RES     
     327 O           28.8233     3.3852     6.3214 O             1 RES     
     328 O           19.3357    19.8182     6.3214 O             1 RES     
     329 O           11.1195     6.8361     6.3214 O             1 RES     
     330 O            1.6319    23.2691     6.3214 O             1 RES     
     331 O           30.0947     6.8361     6.3214 O             1 RES     
     332 O           20.6071    23.2691     6.3214 O             1 RES     
     333 O            7.4952     6.2117     6.3214 O             1 RES     
     334 O           26.4704     6.2117     6.3214 O             1 RES     
     335 O           16.9828    22.6447     6.3214 O             1 RES     
     336 O           35.9580    22.6447     6.3214 O             1 RES     
     337 O            1.1670    13.5572     7.9828 O             1 RES     
     338 O           20.1422    13.5572     7.9828 O             1 RES     
     339 O           10.6546    29.9902     7.9828 O             1 RES     
     340 O           29.6298    29.9902     7.9828 O             1 RES     
     341 O           16.1384    10.6650     7.9828 O             1 RES     
     342 O            6.6508    27.0980     7.9828 O             1 RES     
     343 O           35.1136    10.6650     7.9828 O             1 RES     
     344 O           25.6260    27.0980     7.9828 O             1 RES     
     345 O            1.6698     8.6438     7.9828 O             1 RES     
     346 O           20.6450     8.6438     7.9828 O             1 RES     
     347 O           11.1574    25.0768     7.9828 O             1 RES     
     348 O           30.1326    25.0768     7.9828 O             1 RES     
     349 O            8.3206     2.8758     3.9306 O             1 RES     
     350 O           27.2958     2.8758     3.9306 O             1 RES     
     351 O           17.8082    19.3088     3.9306 O             1 RES     
     352 O           36.7834    19.3088     3.9306 O             1 RES     
     353 O           12.3244     5.7680     3.9306 O             1 RES     
     354 O            2.8368    22.2010     3.9306 O             1 RES     
     355 O           31.2996     5.7680     3.9306 O             1 RES     
     356 O           21.8120    22.2010     3.9306 O             1 RES     
     357 O            7.8178     7.7892     3.9306 O             1 RES     
     358 O           26.7930     7.7892     3.9306 O             1 RES     
     359 O           17.3054    24.2223     3.9306 O             1 RES     
     360 O           36.2806    24.2223     3.9306 O             1 RES     
     361 O           16.9828    13.6723     4.0522 O             1 RES     
     362 O            7.4952    30.1053     4.0522 O             1 RES     
     363 O           35.9580    13.6723     4.0522 O             1 RES     
     364 O           26.4704    30.1053     4.0522 O             1 RES     
     365 O           17.6185     7.8714     4.0522 O             1 RES     
     366 O            8.1309    24.3044     4.0522 O             1 RES     
     367 O           36.5937     7.8714     4.0522 O             1 RES     
     368 O           27.1061    24.3044     4.0522 O             1 RES     
     369 O            3.3491    11.3223     4.0522 O             1 RES     
     370 O           22.3243    11.3223     4.0522 O             1 RES     
     371 O           12.8367    27.7553     4.0522 O             1 RES     
     372 O           31.8119    27.7553     4.0522 O             1 RES     
     373 O           11.4800     2.7607     0.0000 O             1 RES     
     374 O           11.4800     2.7607     8.1044 O             1 RES     
     375 O            1.9924    19.1938     0.0000 O             1 RES     
     376 O            1.9924    19.1938     8.1044 O             1 RES     
     377 O           30.4552     2.7607     0.0000 O             1 RES     
     378 O           30.4552     2.7607     8.1044 O             1 RES     
     379 O           20.9676    19.1938     0.0000 O             1 RES     
     380 O           20.9676    19.1938     8.1044 O             1 RES     
     381 O           10.8443     8.5616     0.0000 O             1 RES     
     382 O           10.8443     8.5616     8.1044 O             1 RES     
     383 O            1.3567    24.9946     0.0000 O             1 RES     
     384 O            1.3567    24.9946     8.1044 O             1 RES     
     385 O           29.8195     8.5616     0.0000 O             1 RES     
     386 O           29.8195     8.5616     8.1044 O             1 RES     
     387 O           20.3319    24.9946     0.0000 O             1 RES     
     388 O           20.3319    24.9946     8.1044 O             1 RES     
     389 O            6.1385     5.1107     0.0000 O             1 RES     
     390 O            6.1385     5.1107     8.1044 O             1 RES     
     391 O           25.1137     5.1107     0.0000 O             1 RES     
     392 O           25.1137     5.1107     8.1044 O             1 RES     
     393 O           15.6261    21.5437     0.0000 O             1 RES     
     394 O           15.6261    21.5437     8.1044 O             1 RES     
     395 O           34.6013    21.5437     0.0000 O             1 RES     
     396 O           34.6013    21.5437     8.1044 O             1 RES     
     397 O            9.0607     3.2044     1.6047 O             1 RES     
     398 O           28.0359     3.2044     1.6047 O             1 RES     
     399 O           18.5483    19.6374     1.6047 O             1 RES     
     400 O           37.5235    19.6374     1.6047 O             1 RES     
     401 O           11.6697     6.2445     1.6047 O             1 RES     
     402 O            2.1821    22.6775     1.6047 O             1 RES     
     403 O           30.6449     6.2445     1.6047 O             1 RES     
     404 O           21.1573    22.6775     1.6047 O             1 RES     
     405 O            7.7324     6.9840     1.6047 O             1 RES     
     406 O           26.7076     6.9840     1.6047 O             1 RES     
     407 O           17.2200    23.4170     1.6047 O             1 RES     
     408 O           36.1952    23.4170     1.6047 O             1 RES     
     409 O            0.4269    13.2286     5.6569 O             1 RES     
     410 O           19.4021    13.2286     5.6569 O             1 RES     
     411 O            9.9145    29.6616     5.6569 O             1 RES     
     412 O           28.8897    29.6616     5.6569 O             1 RES     
     413 O           16.7931    10.1885     5.6569 O             1 RES     
     414 O            7.3055    26.6215     5.6569 O             1 RES     
     415 O           35.7683    10.1885     5.6569 O             1 RES     
     416 O           26.2807    26.6215     5.6569 O             1 RES     
     417 O            1.7552     9.4490     5.6569 O             1 RES     
     418 O           20.7304     9.4490     5.6569 O             1 RES     
     419 O           11.2428    25.8820     5.6569 O             1 RES     
     420 O           30.2180    25.8820     5.6569 O             1 RES     
     421 O           11.7836     3.8782     2.5529 O             1 RES     
     422 O            2.2960    20.3112     2.5529 O             1 RES     
     423 O           30.7588     3.8782     2.5529 O             1 RES     
     424 O           21.2712    20.3112     2.5529 O             1 RES     
     425 O            9.7248     8.2658     2.5529 O             1 RES     
     426 O            0.2372    24.6988     2.5529 O             1 RES     
     427 O           28.7000     8.2658     2.5529 O             1 RES     
     428 O           19.2124    24.6988     2.5529 O             1 RES     
     429 O            6.9544     4.2890     2.5529 O             1 RES     
     430 O           25.9296     4.2890     2.5529 O             1 RES     
     431 O           16.4420    20.7220     2.5529 O             1 RES     
     432 O           35.4172    20.7220     2.5529 O             1 RES     
     433 O           16.6792    12.5548     6.6051 O             1 RES     
     434 O            7.1916    28.9878     6.6051 O             1 RES     
     435 O           35.6544    12.5548     6.6051 O             1 RES     
     436 O           26.1668    28.9878     6.6051 O             1 RES     
     437 O           18.7380     8.1672     6.6051 O             1 RES     
     438 O            9.2504    24.6002     6.6051 O             1 RES     
     439 O           37.7132     8.1672     6.6051 O             1 RES     
     440 O           28.2256    24.6002     6.6051 O             1 RES     
     441 O            2.5332    12.1440     6.6051 O             1 RES     
     442 O           21.5084    12.1440     6.6051 O             1 RES     
     443 O           12.0208    28.5770     6.6051 O             1 RES     
     444 O           30.9960    28.5770     6.6051 O             1 RES     
     445 O            1.1670    13.5572    -0.1216 O             1 RES     
     446 O           20.1422    13.5572    -0.1216 O             1 RES     
     447 O           10.6546    29.9902    -0.1216 O             1 RES     
     448 O           29.6298    29.9902    -0.1216 O             1 RES     
     449 O           16.1384    10.6650    -0.1216 O             1 RES     
     450 O            6.6508    27.0980    -0.1216 O             1 RES     
     451 O           35.1136    10.6650    -0.1216 O             1 RES     
     452 O           25.6260    27.0980    -0.1216 O             1 RES     
     453 O            1.6698     8.6438    -0.1216 O             1 RES     
     454 O           20.6450     8.6438    -0.1216 O             1 RES     
     455 O           11.1574    25.0768    -0.1216 O             1 RES     
     456 O           30.1326    25.0768    -0.1216 O             1 RES     
     457 O            8.0929     0.1479     8.4043 O             1 RES     
     458 O           27.0681     0.1479     8.4043 O             1 RES     
     459 O           17.5805    16.5809     8.4043 O             1 RES     
     460 O           36.5557    16.5809     8.4043 O             1 RES     
     461 O           14.8007     6.9347     8.4043 O             1 RES     
     462 O            5.3131    23.3677     8.4043 O             1 RES     
     463 O           33.7759     6.9347     8.4043 O             1 RES     
     464 O           24.2883    23.3677     8.4043 O             1 RES     
     465 O            5.5692     9.3504     8.4043 O             1 RES     
     466 O           24.5444     9.3504     8.4043 O             1 RES     
     467 O           15.0568    25.7834     8.4043 O             1 RES     
     468 O           34.0320    25.7834     8.4043 O             1 RES     
@<TRIPOS>BOND
       1      112      308 1
       2       18      162 1
       3       49      397 1
       4       90      462 1
       5      125      221 1
       6      138      234 1
       7      140      416 1
       8      134      410 1
       9       86      458 1
      10       16      182 1
      11      126      354 1
      12       68      416 1
      13      131      428 1
      14       67      439 1
      15       62      362 1
      16       30      450 1
      17       53      425 1
      18      142      418 1
      19      129      425 1
      20      128      424 1
      21       92      464 1
      22      133      409 1
      23       20      212 1
      24       19      235 1
      25       41      257 1
      26      123      431 1
      27       97      313 1
      28       95      467 1
      29       11      179 1
      30        1      193 1
      31       95      167 1
      32       33      453 1
      33       56      387 1
      34       74      147 1
      35        5      221 1
      36      118      392 1
      37      111      207 1
      38      121      397 1
      39       69      441 1
      40      141      345 1
      41       58      391 1
      42       60      432 1
      43       24      192 1
      44       65      413 1
      45       31      295 1
      46      122      398 1
      47       45      333 1
      48      133      229 1
      49       87      158 1
      50       42      258 1
      51      105      321 1
      52      119      335 1
      53       87      277 1
      54       73      181 1
      55       46      262 1
      56       11      227 1
      57      113      209 1
      58       99      363 1
      59      106      370 1
      60       82      250 1
      61       96      264 1
      62       12      228 1
      63      104      300 1
      64      116      311 1
      65       37      301 1
      66      143      239 1
      67      132      228 1
      68       32      248 1
      69      103      367 1
      70       18      234 1
      71      119      394 1
      72       21      189 1
      73       23      239 1
      74       61      410 1
      75       42      354 1
      76       43      259 1
      77       89      281 1
      78        5      197 1
      79        5      149 1
      80      107      203 1
      81       69      369 1
      82      116      388 1
      83       80      272 1
      84       77      245 1
      85       42      330 1
      86       50      266 1
      87       16      230 1
      88       49      421 1
      89       44      356 1
      90       79      271 1
      91       72      420 1
      92        7      223 1
      93       99      295 1
      94       93      261 1
      95      139      415 1
      96       48      312 1
      97      115      386 1
      98       24      216 1
      99       81      249 1
     100       61      277 1
     101      108      372 1
     102        8      224 1
     103       68      368 1
     104        1      171 1
     105      110      306 1
     106      144      240 1
     107      127      355 1
     108       96      168 1
     109       57      273 1
     110       78      186 1
     111       38      350 1
     112      126      422 1
     113       71      443 1
     114       94      262 1
     115        8      176 1
     116      125      401 1
     117       66      282 1
     118        7      199 1
     119       91      163 1
     120       29      449 1
     121      129      357 1
     122       80      188 1
     123       98      314 1
     124       94      286 1
     125       11      203 1
     126      105      369 1
     127       53      269 1
     128       39      255 1
     129      127      423 1
     130       79      187 1
     131      102      299 1
     132      107      323 1
     133       47      311 1
     134      120      216 1
     135       63      435 1
     136       71      419 1
     137       88      256 1
     138      101      298 1
     139       66      414 1
     140       89      461 1
     141       28      244 1
     142      119      303 1
     143      110      376 1
     144       26      290 1
     145       65      365 1
     146       99      315 1
     147      104      368 1
     148       31      247 1
     149       88      460 1
     150      128      404 1
     151      104      320 1
     152      118      334 1
     153       35      323 1
     154        1      219 1
     155        7      151 1
     156       22      214 1
     157      110      326 1
     158       97      361 1
     159      121      217 1
     160      135      231 1
     161       92      260 1
     162       62      434 1
     163       35      251 1
     164       44      308 1
     165      134      442 1
     166      132      408 1
     167       32      296 1
     168      129      405 1
     169      134      338 1
     170       17      209 1
     171      107      291 1
     172       36      300 1
     173      135      443 1
     174       46      334 1
     175      125      421 1
     176       59      407 1
     177      143      347 1
     178       69      417 1
     179       21      165 1
     180       47      263 1
     181       58      430 1
     182      124      400 1
     183      106      322 1
     184      120      336 1
     185      121      349 1
     186      133      337 1
     187       26      446 1
     188      142      437 1
     189       58      274 1
     190       70      442 1
     191      136      444 1
     192       83      191 1
     193       83      275 1
     194       27      314 1
     195       20      236 1
     196      116      332 1
     197       72      372 1
     198       14      206 1
     199      108      324 1
     200       72      444 1
     201       71      287 1
     202      124      352 1
     203       54      383 1
     204      119      215 1
     205       38      254 1
     206      100      296 1
     207      115      310 1
     208       36      456 1
     209       88      279 1
     210       92      164 1
     211      111      307 1
     212       46      358 1
     213       52      379 1
     214      129      225 1
     215      118      214 1
     216        1      147 1
     217      106      290 1
     218       11      155 1
     219       28      292 1
     220      117      301 1
     221       64      412 1
     222       67      283 1
     223       28      316 1
     224       30      246 1
     225      133      441 1
     226       16      158 1
     227       95      287 1
     228      128      356 1
     229       76      184 1
     230      139      343 1
     231       40      304 1
     232       48      264 1
     233       57      389 1
     234      131      227 1
     235      109      305 1
     236       95      263 1
     237       59      393 1
     238      139      235 1
     239       85      253 1
     240      130      406 1
     241      144      420 1
     242       82      190 1
     243       82      274 1
     244       29      293 1
     245       39      303 1
     246       73      266 1
     247       57      405 1
     248      137      233 1
     249       33      321 1
     250      136      340 1
     251       21      237 1
     252        5      173 1
     253       51      423 1
     254        3      220 1
     255       55      385 1
     256      138      342 1
     257       10      226 1
     258       19      163 1
     259       60      276 1
     260       84      156 1
     261       75      243 1
     262       89      257 1
     263       51      398 1
     264       34      454 1
     265       49      373 1
     266       43      355 1
     267      141      237 1
     268       19      211 1
     269       98      362 1
     270      124      432 1
     271       55      271 1
     272      109      325 1
     273       94      466 1
     274      105      289 1
     275      114      330 1
     276       89      161 1
     277       32      452 1
     278       55      427 1
     279      100      364 1
     280        9      201 1
     281      127      403 1
     282       43      331 1
     283       64      280 1
     284       97      293 1
     285      141      417 1
     286       12      204 1
     287      132      360 1
     288       67      415 1
     289      127      223 1
     290      140      236 1
     291      100      316 1
     292       74      268 1
     293       34      322 1
     294       41      305 1
     295       47      359 1
     296       43      307 1
     297       12      180 1
     298       23      167 1
     299       45      261 1
     300      125      353 1
     301      143      419 1
     302       27      243 1
     303       63      279 1
     304       80      152 1
     305       52      268 1
     306       47      335 1
     307       65      437 1
     308       83      155 1
     309      138      434 1
     310       20      188 1
     311      137      413 1
     312       25      241 1
     313      135      411 1
     314       20      164 1
     315      114      384 1
     316       53      401 1
     317      111      327 1
     318       59      275 1
     319      144      348 1
     320       66      366 1
     321       72      288 1
     322       37      349 1
     323       57      429 1
     324       58      406 1
     325       29      245 1
     326      136      412 1
     327       71      371 1
     328      130      427 1
     329      144      440 1
     330       91      283 1
     331       66      438 1
     332       25      289 1
     333       86      254 1
     334       33      297 1
     335       36      324 1
     336      106      202 1
     337       98      194 1
     338       35      299 1
     339       24      168 1
     340       23      215 1
     341       28      448 1
     342      142      346 1
     343      103      199 1
     344      115      211 1
     345       84      192 1
     346       31      451 1
     347      131      359 1
     348       49      265 1
     349      120      304 1
     350       84      276 1
     351       64      364 1
     352       41      353 1
     353       67      367 1
     354       97      193 1
     355      107      371 1
     356       96      468 1
     357        6      174 1
     358       34      298 1
     359       50      422 1
     360       85      457 1
     361      117      390 1
     362       17      233 1
     363       93      465 1
     364       63      363 1
     365        4      196 1
     366       41      329 1
     367       54      402 1
     368       45      309 1
     369      126      222 1
     370      108      204 1
     371       44      260 1
     372      113      309 1
     373       12      156 1
     374       81      153 1
     375       14      229 1
     376        3      195 1
     377      130      226 1
     378       33      249 1
     379      101      365 1
     380       27      291 1
     381       62      411 1
     382       96      288 1
     383       26      242 1
     384       37      325 1
     385      124      220 1
     386       13      205 1
     387      122      350 1
     388       99      195 1
     389       93      285 1
     390      139      435 1
     391       70      286 1
     392      112      380 1
     393      138      414 1
     394       14      157 1
     395       51      377 1
     396       19      187 1
     397      113      329 1
     398       42      306 1
     399      105      201 1
     400       16      208 1
     401       70      418 1
     402       22      166 1
     403        3      148 1
     404       30      318 1
     405       40      256 1
     406       31      319 1
     407       38      302 1
     408      123      351 1
     409      128      224 1
     410      114      210 1
     411       53      381 1
     412       23      191 1
     413      111      378 1
     414       83      251 1
     415       48      336 1
     416       78      150 1
     417       39      351 1
     418      109      374 1
     419      135      339 1
     420      104      200 1
     421      116      212 1
     422      142      238 1
     423       54      270 1
     424       59      431 1
     425       61      433 1
     426       84      252 1
     427       91      463 1
     428      120      396 1
     429       60      395 1
     430      140      344 1
     431      115      331 1
     432       87      459 1
     433      118      302 1
     434       55      403 1
     435      123      399 1
     436       22      238 1
     437      143      438 1
     438       56      272 1
     439       68      440 1
     440       17      185 1
     441        6      198 1
     442      109      205 1
     443       39      328 1
     444       93      165 1
     445       30      294 1
     446        6      150 1
     447      121      429 1
     448       64      436 1
     449      102      198 1
     450      117      213 1
     451       61      361 1
     452       73      241 1
     453        6      222 1
     454      122      218 1
     455      136      232 1
     456       17      161 1
     457       74      182 1
     458      131      407 1
     459      101      197 1
     460       78      270 1
     461        3      172 1
     462       82      154 1
     463       14      181 1
     464       15      207 1
     465      137      433 1
     466       40      352 1
     467       60      408 1
     468       38      327 1
     469       44      332 1
     470      122      430 1
     471      101      317 1
     472       29      317 1
     473       51      267 1
     474        8      200 1
     475       10      154 1
     476       90      162 1
     477       52      399 1
     478       26      313 1
     479       37      253 1
     480      137      341 1
     481       10      202 1
     482      103      319 1
     483      130      358 1
     484       24      240 1
     485       34      250 1
     486       90      258 1
     487       54      426 1
     488       10      178 1
     489       21      213 1
     490      113      382 1
     491       76      244 1
     492       87      255 1
     493       91      259 1
     494      102      318 1
     495      117      333 1
     496        9      153 1
     497       46      310 1
     498       65      281 1
     499      100      196 1
     500      112      208 1
     501       50      375 1
     502       77      185 1
     503       45      357 1
     504       56      404 1
     505       62      278 1
     506       69      285 1
     507       48      360 1
     508       81      189 1
     509       81      273 1
     510       79      151 1
     511       35      455 1
     512       92      284 1
     513        8      152 1
     514      112      328 1
     515      123      219 1
     516      110      206 1
     517       27      447 1
     518       78      246 1
     519      126      402 1
     520       77      149 1
     521        9      225 1
     522       90      282 1
     523      102      366 1
     524       98      294 1
     525       32      320 1
     526       68      284 1
     527       75      183 1
     528       56      428 1
     529        7      175 1
     530       22      190 1
     531       18      210 1
     532       52      424 1
     533       25      445 1
     534       70      370 1
     535       80      248 1
     536       77      269 1
     537       79      247 1
     538        2      194 1
     539       18      186 1
     540      140      436 1
     541        9      177 1
     542       94      166 1
     543      108      292 1
     544       36      252 1
     545      134      230 1
     546       74      242 1
@<TRIPOS>SUBSTRUCTURE
       1 RES             1 RESIDUE    0 **** ROOT      0
