@<TRIPOS>MOLECULE
RES
4212 5094 1 0 1
SMALL
NO_CHARGES
@<TRIPOS>CRYSIN
  118.3768   103.5652    13.5258    90.0000    90.0000    90.0000  1  1
@<TRIPOS>ATOM
       1 Al          16.8025    16.4166     1.9370 Al            1 RES     
       2 Al           7.3149    32.8496     1.9370 Al            1 RES     
       3 Al          35.7777    16.4166     1.9370 Al            1 RES     
       4 Al          26.2901    32.8496     1.9370 Al            1 RES     
       5 Al          15.3320     6.3431     1.9370 Al            1 RES     
       6 Al           5.8444    22.7761     1.9370 Al            1 RES     
       7 Al          34.3072     6.3431     1.9370 Al            1 RES     
       8 Al          24.8196    22.7761     1.9370 Al            1 RES     
       9 Al           5.8159    10.1063     1.9370 Al            1 RES     
      10 Al          24.7911    10.1063     1.9370 Al            1 RES     
      11 Al          15.3035    26.5393     1.9370 Al            1 RES     
      12 Al          34.2787    26.5393     1.9370 Al            1 RES     
      13 Al          11.6603     0.0164     5.9892 Al            1 RES     
      14 Al           2.1727    16.4494     5.9892 Al            1 RES     
      15 Al          30.6355     0.0164     5.9892 Al            1 RES     
      16 Al          21.1479    16.4494     5.9892 Al            1 RES     
      17 Al          13.1308    10.0899     5.9892 Al            1 RES     
      18 Al           3.6432    26.5229     5.9892 Al            1 RES     
      19 Al          32.1060    10.0899     5.9892 Al            1 RES     
      20 Al          22.6184    26.5229     5.9892 Al            1 RES     
      21 Al           3.6717     6.3267     5.9892 Al            1 RES     
      22 Al          22.6469     6.3267     5.9892 Al            1 RES     
      23 Al          13.1593    22.7597     5.9892 Al            1 RES     
      24 Al          32.1345    22.7597     5.9892 Al            1 RES     
      25 Al           1.1480    13.5901     1.6533 Al            1 RES     
      26 Al          20.1232    13.5901     1.6533 Al            1 RES     
      27 Al          10.6356    30.0231     1.6533 Al            1 RES     
      28 Al          29.6108    30.0231     1.6533 Al            1 RES     
      29 Al          16.1194    10.6322     1.6533 Al            1 RES     
      30 Al           6.6318    27.0652     1.6533 Al            1 RES     
      31 Al          35.0946    10.6322     1.6533 Al            1 RES     
      32 Al          25.6070    27.0652     1.6533 Al            1 RES     
      33 Al           1.7078     8.6438     1.6533 Al            1 RES     
      34 Al          20.6830     8.6438     1.6533 Al            1 RES     
      35 Al          11.1954    25.0768     1.6533 Al            1 RES     
      36 Al          30.1706    25.0768     1.6533 Al            1 RES     
      37 Al           8.3396     2.8429     5.7055 Al            1 RES     
      38 Al          27.3148     2.8429     5.7055 Al            1 RES     
      39 Al          17.8272    19.2759     5.7055 Al            1 RES     
      40 Al          36.8024    19.2759     5.7055 Al            1 RES     
      41 Al          12.3434     5.8009     5.7055 Al            1 RES     
      42 Al           2.8558    22.2339     5.7055 Al            1 RES     
      43 Al          31.3186     5.8009     5.7055 Al            1 RES     
      44 Al          21.8310    22.2339     5.7055 Al            1 RES     
      45 Al           7.7798     7.7892     5.7055 Al            1 RES     
      46 Al          26.7550     7.7892     5.7055 Al            1 RES     
      47 Al          17.2674    24.2223     5.7055 Al            1 RES     
      48 Al          36.2426    24.2223     5.7055 Al            1 RES     
      49 Al          10.8064     2.7772     1.6047 Al            1 RES     
      50 Al           1.3188    19.2102     1.6047 Al            1 RES     
      51 Al          29.7816     2.7772     1.6047 Al            1 RES     
      52 Al          20.2940    19.2102     1.6047 Al            1 RES     
      53 Al          11.1669     7.9700     1.6047 Al            1 RES     
      54 Al           1.6793    24.4030     1.6047 Al            1 RES     
      55 Al          30.1421     7.9700     1.6047 Al            1 RES     
      56 Al          20.6545    24.4030     1.6047 Al            1 RES     
      57 Al           6.4895     5.6858     1.6047 Al            1 RES     
      58 Al          25.4647     5.6858     1.6047 Al            1 RES     
      59 Al          15.9771    22.1188     1.6047 Al            1 RES     
      60 Al          34.9523    22.1188     1.6047 Al            1 RES     
      61 Al          17.6564    13.6558     5.6569 Al            1 RES     
      62 Al           8.1688    30.0888     5.6569 Al            1 RES     
      63 Al          36.6316    13.6558     5.6569 Al            1 RES     
      64 Al          27.1440    30.0888     5.6569 Al            1 RES     
      65 Al          17.2959     8.4630     5.6569 Al            1 RES     
      66 Al           7.8083    24.8960     5.6569 Al            1 RES     
      67 Al          36.2711     8.4630     5.6569 Al            1 RES     
      68 Al          26.7835    24.8960     5.6569 Al            1 RES     
      69 Al           2.9981    10.7472     5.6569 Al            1 RES     
      70 Al          21.9733    10.7472     5.6569 Al            1 RES     
      71 Al          12.4857    27.1802     5.6569 Al            1 RES     
      72 Al          31.4609    27.1802     5.6569 Al            1 RES     
      73 P            0.9582    16.4166     2.9014 P             1 RES     
      74 P           19.9334    16.4166     2.9014 P             1 RES     
      75 P           10.4458    32.8496     2.9014 P             1 RES     
      76 P           29.4210    32.8496     2.9014 P             1 RES     
      77 P           13.7665     9.0546     2.9014 P             1 RES     
      78 P            4.2789    25.4876     2.9014 P             1 RES     
      79 P           32.7417     9.0546     2.9014 P             1 RES     
      80 P           23.2541    25.4876     2.9014 P             1 RES     
      81 P            4.2504     7.3949     2.9014 P             1 RES     
      82 P           23.2256     7.3949     2.9014 P             1 RES     
      83 P           13.7380    23.8279     2.9014 P             1 RES     
      84 P           32.7132    23.8279     2.9014 P             1 RES     
      85 P            8.5294     0.0164     6.9536 P             1 RES     
      86 P           27.5046     0.0164     6.9536 P             1 RES     
      87 P           18.0170    16.4494     6.9536 P             1 RES     
      88 P           36.9922    16.4494     6.9536 P             1 RES     
      89 P           14.6963     7.3784     6.9536 P             1 RES     
      90 P            5.2087    23.8114     6.9536 P             1 RES     
      91 P           33.6715     7.3784     6.9536 P             1 RES     
      92 P           24.1839    23.8114     6.9536 P             1 RES     
      93 P            5.2372     9.0382     6.9536 P             1 RES     
      94 P           24.2124     9.0382     6.9536 P             1 RES     
      95 P           14.7248    25.4712     6.9536 P             1 RES     
      96 P           33.7000    25.4712     6.9536 P             1 RES     
      97 P           17.1441    13.3929     2.5934 P             1 RES     
      98 P            7.6565    29.8259     2.5934 P             1 RES     
      99 P           36.1193    13.3929     2.5934 P             1 RES     
     100 P           26.6317    29.8259     2.5934 P             1 RES     
     101 P           17.7798     8.1508     2.5934 P             1 RES     
     102 P            8.2922    24.5838     2.5934 P             1 RES     
     103 P           36.7550     8.1508     2.5934 P             1 RES     
     104 P           27.2674    24.5838     2.5934 P             1 RES     
     105 P            3.0265    11.3223     2.5934 P             1 RES     
     106 P           22.0017    11.3223     2.5934 P             1 RES     
     107 P           12.5141    27.7553     2.5934 P             1 RES     
     108 P           31.4893    27.7553     2.5934 P             1 RES     
     109 P           11.3187     3.0401     6.6456 P             1 RES     
     110 P            1.8311    19.4731     6.6456 P             1 RES     
     111 P           30.2939     3.0401     6.6456 P             1 RES     
     112 P           20.8063    19.4731     6.6456 P             1 RES     
     113 P           10.6830     8.2822     6.6456 P             1 RES     
     114 P            1.1954    24.7152     6.6456 P             1 RES     
     115 P           29.6582     8.2822     6.6456 P             1 RES     
     116 P           20.1706    24.7152     6.6456 P             1 RES     
     117 P            6.4611     5.1107     6.6456 P             1 RES     
     118 P           25.4363     5.1107     6.6456 P             1 RES     
     119 P           15.9487    21.5437     6.6456 P             1 RES     
     120 P           34.9239    21.5437     6.6456 P             1 RES     
     121 P            7.8652     3.0401     2.5043 P             1 RES     
     122 P           26.8404     3.0401     2.5043 P             1 RES     
     123 P           17.3528    19.4731     2.5043 P             1 RES     
     124 P           36.3280    19.4731     2.5043 P             1 RES     
     125 P           12.4098     5.2914     2.5043 P             1 RES     
     126 P            2.9222    21.7244     2.5043 P             1 RES     
     127 P           31.3850     5.2914     2.5043 P             1 RES     
     128 P           21.8974    21.7244     2.5043 P             1 RES     
     129 P            8.1878     8.1015     2.5043 P             1 RES     
     130 P           27.1630     8.1015     2.5043 P             1 RES     
     131 P           17.6754    24.5345     2.5043 P             1 RES     
     132 P           36.6506    24.5345     2.5043 P             1 RES     
     133 P            1.6224    13.3929     6.5565 P             1 RES     
     134 P           20.5976    13.3929     6.5565 P             1 RES     
     135 P           11.1100    29.8259     6.5565 P             1 RES     
     136 P           30.0852    29.8259     6.5565 P             1 RES     
     137 P           16.0530    11.1416     6.5565 P             1 RES     
     138 P            6.5654    27.5746     6.5565 P             1 RES     
     139 P           35.0282    11.1416     6.5565 P             1 RES     
     140 P           25.5406    27.5746     6.5565 P             1 RES     
     141 P            1.2998     8.3315     6.5565 P             1 RES     
     142 P           20.2750     8.3315     6.5565 P             1 RES     
     143 P           10.7874    24.7645     6.5565 P             1 RES     
     144 P           29.7626    24.7645     6.5565 P             1 RES     
     145 O            8.9089     0.0164     2.7474 O             1 RES     
     146 O           27.8841     0.0164     2.7474 O             1 RES     
     147 O           18.3965    16.4494     2.7474 O             1 RES     
     148 O           37.3717    16.4494     2.7474 O             1 RES     
     149 O           14.5065     7.7071     2.7474 O             1 RES     
     150 O            5.0189    24.1401     2.7474 O             1 RES     
     151 O           33.4817     7.7071     2.7474 O             1 RES     
     152 O           23.9941    24.1401     2.7474 O             1 RES     
     153 O            5.0474     8.7095     2.7474 O             1 RES     
     154 O           24.0226     8.7095     2.7474 O             1 RES     
     155 O           14.5350    25.1425     2.7474 O             1 RES     
     156 O           33.5102    25.1425     2.7474 O             1 RES     
     157 O            0.5787    16.4166     6.7996 O             1 RES     
     158 O           19.5539    16.4166     6.7996 O             1 RES     
     159 O           10.0663    32.8496     6.7996 O             1 RES     
     160 O           29.0415    32.8496     6.7996 O             1 RES     
     161 O           13.9563     8.7259     6.7996 O             1 RES     
     162 O            4.4687    25.1589     6.7996 O             1 RES     
     163 O           32.9315     8.7259     6.7996 O             1 RES     
     164 O           23.4439    25.1589     6.7996 O             1 RES     
     165 O            4.4402     7.7235     6.7996 O             1 RES     
     166 O           23.4154     7.7235     6.7996 O             1 RES     
     167 O           13.9278    24.1565     6.7996 O             1 RES     
     168 O           32.9030    24.1565     6.7996 O             1 RES     
     169 O            8.0929     0.1479     0.2999 O             1 RES     
     170 O           27.0681     0.1479     0.2999 O             1 RES     
     171 O           17.5805    16.5809     0.2999 O             1 RES     
     172 O           36.5557    16.5809     0.2999 O             1 RES     
     173 O           14.8007     6.9347     0.2999 O             1 RES     
     174 O            5.3131    23.3677     0.2999 O             1 RES     
     175 O           33.7759     6.9347     0.2999 O             1 RES     
     176 O           24.2883    23.3677     0.2999 O             1 RES     
     177 O            5.5692     9.3504     0.2999 O             1 RES     
     178 O           24.5444     9.3504     0.2999 O             1 RES     
     179 O           15.0568    25.7834     0.2999 O             1 RES     
     180 O           34.0320    25.7834     0.2999 O             1 RES     
     181 O            1.3947    16.2851     4.3521 O             1 RES     
     182 O           20.3699    16.2851     4.3521 O             1 RES     
     183 O           10.8823    32.7181     4.3521 O             1 RES     
     184 O           29.8575    32.7181     4.3521 O             1 RES     
     185 O           13.6621     9.4983     4.3521 O             1 RES     
     186 O            4.1745    25.9313     4.3521 O             1 RES     
     187 O           32.6373     9.4983     4.3521 O             1 RES     
     188 O           23.1497    25.9313     4.3521 O             1 RES     
     189 O            3.9184     7.0826     4.3521 O             1 RES     
     190 O           22.8936     7.0826     4.3521 O             1 RES     
     191 O           13.4060    23.5156     4.3521 O             1 RES     
     192 O           32.3812    23.5156     4.3521 O             1 RES     
     193 O           16.6602    14.5925     1.8073 O             1 RES     
     194 O            7.1726    31.0255     1.8073 O             1 RES     
     195 O           35.6354    14.5925     1.8073 O             1 RES     
     196 O           26.1478    31.0255     1.8073 O             1 RES     
     197 O           16.9828     7.1319     1.8073 O             1 RES     
     198 O            7.4952    23.5649     1.8073 O             1 RES     
     199 O           35.9580     7.1319     1.8073 O             1 RES     
     200 O           26.4704    23.5649     1.8073 O             1 RES     
     201 O            4.3074    11.1416     1.8073 O             1 RES     
     202 O           23.2826    11.1416     1.8073 O             1 RES     
     203 O           13.7950    27.5746     1.8073 O             1 RES     
     204 O           32.7702    27.5746     1.8073 O             1 RES     
     205 O           11.8026     1.8405     5.8595 O             1 RES     
     206 O            2.3150    18.2735     5.8595 O             1 RES     
     207 O           30.7778     1.8405     5.8595 O             1 RES     
     208 O           21.2902    18.2735     5.8595 O             1 RES     
     209 O           11.4800     9.3011     5.8595 O             1 RES     
     210 O            1.9924    25.7341     5.8595 O             1 RES     
     211 O           30.4552     9.3011     5.8595 O             1 RES     
     212 O           20.9676    25.7341     5.8595 O             1 RES     
     213 O            5.1802     5.2914     5.8595 O             1 RES     
     214 O           24.1554     5.2914     5.8595 O             1 RES     
     215 O           14.6678    21.7244     5.8595 O             1 RES     
     216 O           33.6430    21.7244     5.8595 O             1 RES     
     217 O            7.1062     1.8241     2.0666 O             1 RES     
     218 O           26.0814     1.8241     2.0666 O             1 RES     
     219 O           16.5938    18.2571     2.0666 O             1 RES     
     220 O           35.5690    18.2571     2.0666 O             1 RES     
     221 O           13.8424     5.2421     2.0666 O             1 RES     
     222 O            4.3548    21.6751     2.0666 O             1 RES     
     223 O           32.8176     5.2421     2.0666 O             1 RES     
     224 O           23.3300    21.6751     2.0666 O             1 RES     
     225 O            7.5142     9.3668     2.0666 O             1 RES     
     226 O           26.4894     9.3668     2.0666 O             1 RES     
     227 O           17.0018    25.7998     2.0666 O             1 RES     
     228 O           35.9770    25.7998     2.0666 O             1 RES     
     229 O            2.3814    14.6089     6.1188 O             1 RES     
     230 O           21.3566    14.6089     6.1188 O             1 RES     
     231 O           11.8690    31.0420     6.1188 O             1 RES     
     232 O           30.8442    31.0420     6.1188 O             1 RES     
     233 O           14.6204    11.1909     6.1188 O             1 RES     
     234 O            5.1328    27.6239     6.1188 O             1 RES     
     235 O           33.5956    11.1909     6.1188 O             1 RES     
     236 O           24.1080    27.6239     6.1188 O             1 RES     
     237 O            1.9734     7.0662     6.1188 O             1 RES     
     238 O           20.9486     7.0662     6.1188 O             1 RES     
     239 O           11.4610    23.4992     6.1188 O             1 RES     
     240 O           30.4362    23.4992     6.1188 O             1 RES     
     241 O            1.4611    15.2170     2.1396 O             1 RES     
     242 O           20.4363    15.2170     2.1396 O             1 RES     
     243 O           10.9487    31.6500     2.1396 O             1 RES     
     244 O           29.9239    31.6500     2.1396 O             1 RES     
     245 O           14.5540    10.0899     2.1396 O             1 RES     
     246 O            5.0664    26.5229     2.1396 O             1 RES     
     247 O           33.5292    10.0899     2.1396 O             1 RES     
     248 O           24.0416    26.5229     2.1396 O             1 RES     
     249 O            2.9601     7.5592     2.1396 O             1 RES     
     250 O           21.9353     7.5592     2.1396 O             1 RES     
     251 O           12.4477    23.9922     2.1396 O             1 RES     
     252 O           31.4229    23.9922     2.1396 O             1 RES     
     253 O            8.0265     1.2160     6.1918 O             1 RES     
     254 O           27.0017     1.2160     6.1918 O             1 RES     
     255 O           17.5141    17.6490     6.1918 O             1 RES     
     256 O           36.4893    17.6490     6.1918 O             1 RES     
     257 O           13.9088     6.3431     6.1918 O             1 RES     
     258 O            4.4212    22.7761     6.1918 O             1 RES     
     259 O           32.8840     6.3431     6.1918 O             1 RES     
     260 O           23.3964    22.7761     6.1918 O             1 RES     
     261 O            6.5275     8.8738     6.1918 O             1 RES     
     262 O           25.5027     8.8738     6.1918 O             1 RES     
     263 O           16.0151    25.3068     6.1918 O             1 RES     
     264 O           34.9903    25.3068     6.1918 O             1 RES     
     265 O           11.0625     1.1832     2.2530 O             1 RES     
     266 O            1.5749    17.6162     2.2530 O             1 RES     
     267 O           30.0377     1.1832     2.2530 O             1 RES     
     268 O           20.5501    17.6162     2.2530 O             1 RES     
     269 O           12.4193     8.9889     2.2530 O             1 RES     
     270 O            2.9317    25.4219     2.2530 O             1 RES     
     271 O           31.3945     8.9889     2.2530 O             1 RES     
     272 O           21.9069    25.4219     2.2530 O             1 RES     
     273 O            4.9810     6.2610     2.2530 O             1 RES     
     274 O           23.9562     6.2610     2.2530 O             1 RES     
     275 O           14.4686    22.6940     2.2530 O             1 RES     
     276 O           33.4438    22.6940     2.2530 O             1 RES     
     277 O           17.4003    15.2498     6.3052 O             1 RES     
     278 O            7.9127    31.6828     6.3052 O             1 RES     
     279 O           36.3755    15.2498     6.3052 O             1 RES     
     280 O           26.8879    31.6828     6.3052 O             1 RES     
     281 O           16.0435     7.4442     6.3052 O             1 RES     
     282 O            6.5559    23.8772     6.3052 O             1 RES     
     283 O           35.0187     7.4442     6.3052 O             1 RES     
     284 O           25.5311    23.8772     6.3052 O             1 RES     
     285 O            4.5066    10.1720     6.3052 O             1 RES     
     286 O           23.4818    10.1720     6.3052 O             1 RES     
     287 O           13.9942    26.6050     6.3052 O             1 RES     
     288 O           32.9694    26.6050     6.3052 O             1 RES     
     289 O            2.4193    12.6370     2.2692 O             1 RES     
     290 O           21.3945    12.6370     2.2692 O             1 RES     
     291 O           11.9069    29.0700     2.2692 O             1 RES     
     292 O           30.8821    29.0700     2.2692 O             1 RES     
     293 O           16.3092    12.2097     2.2692 O             1 RES     
     294 O            6.8216    28.6427     2.2692 O             1 RES     
     295 O           35.2844    12.2097     2.2692 O             1 RES     
     296 O           25.7968    28.6427     2.2692 O             1 RES     
     297 O            0.2467     8.0193     2.2692 O             1 RES     
     298 O           19.2219     8.0193     2.2692 O             1 RES     
     299 O            9.7343    24.4523     2.2692 O             1 RES     
     300 O           28.7095    24.4523     2.2692 O             1 RES     
     301 O            7.0683     3.7960     6.3214 O             1 RES     
     302 O           26.0435     3.7960     6.3214 O             1 RES     
     303 O           16.5559    20.2290     6.3214 O             1 RES     
     304 O           35.5311    20.2290     6.3214 O             1 RES     
     305 O           12.1536     4.2233     6.3214 O             1 RES     
     306 O            2.6660    20.6563     6.3214 O             1 RES     
     307 O           31.1288     4.2233     6.3214 O             1 RES     
     308 O           21.6412    20.6563     6.3214 O             1 RES     
     309 O            9.2409     8.4137     6.3214 O             1 RES     
     310 O           28.2161     8.4137     6.3214 O             1 RES     
     311 O           18.7285    24.8467     6.3214 O             1 RES     
     312 O           37.7037    24.8467     6.3214 O             1 RES     
     313 O           18.6147    13.0478     2.2692 O             1 RES     
     314 O            9.1271    29.4808     2.2692 O             1 RES     
     315 O           37.5899    13.0478     2.2692 O             1 RES     
     316 O           28.1023    29.4808     2.2692 O             1 RES     
     317 O           17.3433     9.5969     2.2692 O             1 RES     
     318 O            7.8557    26.0299     2.2692 O             1 RES     
     319 O           36.3185     9.5969     2.2692 O             1 RES     
     320 O           26.8309    26.0299     2.2692 O             1 RES     
     321 O            1.9924    10.2213     2.2692 O             1 RES     
     322 O           20.9676    10.2213     2.2692 O             1 RES     
     323 O           11.4800    26.6543     2.2692 O             1 RES     
     324 O           30.4552    26.6543     2.2692 O             1 RES     
     325 O            9.8481     3.3852     6.3214 O             1 RES     
     326 O            0.3605    19.8182     6.3214 O             1 RES     
     327 O           28.8233     3.3852     6.3214 O             1 RES     
     328 O           19.3357    19.8182     6.3214 O             1 RES     
     329 O           11.1195     6.8361     6.3214 O             1 RES     
     330 O            1.6319    23.2691     6.3214 O             1 RES     
     331 O           30.0947     6.8361     6.3214 O             1 RES     
     332 O           20.6071    23.2691     6.3214 O             1 RES     
     333 O            7.4952     6.2117     6.3214 O             1 RES     
     334 O           26.4704     6.2117     6.3214 O             1 RES     
     335 O           16.9828    22.6447     6.3214 O             1 RES     
     336 O           35.9580    22.6447     6.3214 O             1 RES     
     337 O            1.1670    13.5572     7.9828 O             1 RES     
     338 O           20.1422    13.5572     7.9828 O             1 RES     
     339 O           10.6546    29.9902     7.9828 O             1 RES     
     340 O           29.6298    29.9902     7.9828 O             1 RES     
     341 O           16.1384    10.6650     7.9828 O             1 RES     
     342 O            6.6508    27.0980     7.9828 O             1 RES     
     343 O           35.1136    10.6650     7.9828 O             1 RES     
     344 O           25.6260    27.0980     7.9828 O             1 RES     
     345 O            1.6698     8.6438     7.9828 O             1 RES     
     346 O           20.6450     8.6438     7.9828 O             1 RES     
     347 O           11.1574    25.0768     7.9828 O             1 RES     
     348 O           30.1326    25.0768     7.9828 O             1 RES     
     349 O            8.3206     2.8758     3.9306 O             1 RES     
     350 O           27.2958     2.8758     3.9306 O             1 RES     
     351 O           17.8082    19.3088     3.9306 O             1 RES     
     352 O           36.7834    19.3088     3.9306 O             1 RES     
     353 O           12.3244     5.7680     3.9306 O             1 RES     
     354 O            2.8368    22.2010     3.9306 O             1 RES     
     355 O           31.2996     5.7680     3.9306 O             1 RES     
     356 O           21.8120    22.2010     3.9306 O             1 RES     
     357 O            7.8178     7.7892     3.9306 O             1 RES     
     358 O           26.7930     7.7892     3.9306 O             1 RES     
     359 O           17.3054    24.2223     3.9306 O             1 RES     
     360 O           36.2806    24.2223     3.9306 O             1 RES     
     361 O           16.9828    13.6723     4.0522 O             1 RES     
     362 O            7.4952    30.1053     4.0522 O             1 RES     
     363 O           35.9580    13.6723     4.0522 O             1 RES     
     364 O           26.4704    30.1053     4.0522 O             1 RES     
     365 O           17.6185     7.8714     4.0522 O             1 RES     
     366 O            8.1309    24.3044     4.0522 O             1 RES     
     367 O           36.5937     7.8714     4.0522 O             1 RES     
     368 O           27.1061    24.3044     4.0522 O             1 RES     
     369 O            3.3491    11.3223     4.0522 O             1 RES     
     370 O           22.3243    11.3223     4.0522 O             1 RES     
     371 O           12.8367    27.7553     4.0522 O             1 RES     
     372 O           31.8119    27.7553     4.0522 O             1 RES     
     373 O           11.4800     2.7607     0.0000 O             1 RES     
     374 O           11.4800     2.7607     8.1044 O             1 RES     
     375 O            1.9924    19.1938     0.0000 O             1 RES     
     376 O            1.9924    19.1938     8.1044 O             1 RES     
     377 O           30.4552     2.7607     0.0000 O             1 RES     
     378 O           30.4552     2.7607     8.1044 O             1 RES     
     379 O           20.9676    19.1938     0.0000 O             1 RES     
     380 O           20.9676    19.1938     8.1044 O             1 RES     
     381 O           10.8443     8.5616     0.0000 O             1 RES     
     382 O           10.8443     8.5616     8.1044 O             1 RES     
     383 O            1.3567    24.9946     0.0000 O             1 RES     
     384 O            1.3567    24.9946     8.1044 O             1 RES     
     385 O           29.8195     8.5616     0.0000 O             1 RES     
     386 O           29.8195     8.5616     8.1044 O             1 RES     
     387 O           20.3319    24.9946     0.0000 O             1 RES     
     388 O           20.3319    24.9946     8.1044 O             1 RES     
     389 O            6.1385     5.1107     0.0000 O             1 RES     
     390 O            6.1385     5.1107     8.1044 O             1 RES     
     391 O           25.1137     5.1107     0.0000 O             1 RES     
     392 O           25.1137     5.1107     8.1044 O             1 RES     
     393 O           15.6261    21.5437     0.0000 O             1 RES     
     394 O           15.6261    21.5437     8.1044 O             1 RES     
     395 O           34.6013    21.5437     0.0000 O             1 RES     
     396 O           34.6013    21.5437     8.1044 O             1 RES     
     397 O            9.0607     3.2044     1.6047 O             1 RES     
     398 O           28.0359     3.2044     1.6047 O             1 RES     
     399 O           18.5483    19.6374     1.6047 O             1 RES     
     400 O           37.5235    19.6374     1.6047 O             1 RES     
     401 O           11.6697     6.2445     1.6047 O             1 RES     
     402 O            2.1821    22.6775     1.6047 O             1 RES     
     403 O           30.6449     6.2445     1.6047 O             1 RES     
     404 O           21.1573    22.6775     1.6047 O             1 RES     
     405 O            7.7324     6.9840     1.6047 O             1 RES     
     406 O           26.7076     6.9840     1.6047 O             1 RES     
     407 O           17.2200    23.4170     1.6047 O             1 RES     
     408 O           36.1952    23.4170     1.6047 O             1 RES     
     409 O            0.4269    13.2286     5.6569 O             1 RES     
     410 O           19.4021    13.2286     5.6569 O             1 RES     
     411 O            9.9145    29.6616     5.6569 O             1 RES     
     412 O           28.8897    29.6616     5.6569 O             1 RES     
     413 O           16.7931    10.1885     5.6569 O             1 RES     
     414 O            7.3055    26.6215     5.6569 O             1 RES     
     415 O           35.7683    10.1885     5.6569 O             1 RES     
     416 O           26.2807    26.6215     5.6569 O             1 RES     
     417 O            1.7552     9.4490     5.6569 O             1 RES     
     418 O           20.7304     9.4490     5.6569 O             1 RES     
     419 O           11.2428    25.8820     5.6569 O             1 RES     
     420 O           30.2180    25.8820     5.6569 O             1 RES     
     421 O           11.7836     3.8782     2.5529 O             1 RES     
     422 O            2.2960    20.3112     2.5529 O             1 RES     
     423 O           30.7588     3.8782     2.5529 O             1 RES     
     424 O           21.2712    20.3112     2.5529 O             1 RES     
     425 O            9.7248     8.2658     2.5529 O             1 RES     
     426 O            0.2372    24.6988     2.5529 O             1 RES     
     427 O           28.7000     8.2658     2.5529 O             1 RES     
     428 O           19.2124    24.6988     2.5529 O             1 RES     
     429 O            6.9544     4.2890     2.5529 O             1 RES     
     430 O           25.9296     4.2890     2.5529 O             1 RES     
     431 O           16.4420    20.7220     2.5529 O             1 RES     
     432 O           35.4172    20.7220     2.5529 O             1 RES     
     433 O           16.6792    12.5548     6.6051 O             1 RES     
     434 O            7.1916    28.9878     6.6051 O             1 RES     
     435 O           35.6544    12.5548     6.6051 O             1 RES     
     436 O           26.1668    28.9878     6.6051 O             1 RES     
     437 O           18.7380     8.1672     6.6051 O             1 RES     
     438 O            9.2504    24.6002     6.6051 O             1 RES     
     439 O           37.7132     8.1672     6.6051 O             1 RES     
     440 O           28.2256    24.6002     6.6051 O             1 RES     
     441 O            2.5332    12.1440     6.6051 O             1 RES     
     442 O           21.5084    12.1440     6.6051 O             1 RES     
     443 O           12.0208    28.5770     6.6051 O             1 RES     
     444 O           30.9960    28.5770     6.6051 O             1 RES     
     445 O            1.1670    13.5572    -0.1216 O             1 RES     
     446 O           20.1422    13.5572    -0.1216 O             1 RES     
     447 O           10.6546    29.9902    -0.1216 O             1 RES     
     448 O           29.6298    29.9902    -0.1216 O             1 RES     
     449 O           16.1384    10.6650    -0.1216 O             1 RES     
     450 O            6.6508    27.0980    -0.1216 O             1 RES     
     451 O           35.1136    10.6650    -0.1216 O             1 RES     
     452 O           25.6260    27.0980    -0.1216 O             1 RES     
     453 O            1.6698     8.6438    -0.1216 O             1 RES     
     454 O           20.6450     8.6438    -0.1216 O             1 RES     
     455 O           11.1574    25.0768    -0.1216 O             1 RES     
     456 O           30.1326    25.0768    -0.1216 O             1 RES     
     457 O            8.0929     0.1479     8.4043 O             1 RES     
     458 O           27.0681     0.1479     8.4043 O             1 RES     
     459 O           17.5805    16.5809     8.4043 O             1 RES     
     460 O           36.5557    16.5809     8.4043 O             1 RES     
     461 O           14.8007     6.9347     8.4043 O             1 RES     
     462 O            5.3131    23.3677     8.4043 O             1 RES     
     463 O           33.7759     6.9347     8.4043 O             1 RES     
     464 O           24.2883    23.3677     8.4043 O             1 RES     
     465 O            5.5692     9.3504     8.4043 O             1 RES     
     466 O           24.5444     9.3504     8.4043 O             1 RES     
     467 O           15.0568    25.7834     8.4043 O             1 RES     
     468 O           34.0320    25.7834     8.4043 O             1 RES     
     469 Al          16.8025    49.2826     1.9370 Al            1 RES     
     470 Al           7.3149    65.7156     1.9370 Al            1 RES     
     471 Al          35.7777    49.2826     1.9370 Al            1 RES     
     472 Al          26.2901    65.7156     1.9370 Al            1 RES     
     473 Al          15.3320    39.2092     1.9370 Al            1 RES     
     474 Al           5.8444    55.6422     1.9370 Al            1 RES     
     475 Al          34.3072    39.2092     1.9370 Al            1 RES     
     476 Al          24.8196    55.6422     1.9370 Al            1 RES     
     477 Al           5.8159    42.9723     1.9370 Al            1 RES     
     478 Al          24.7911    42.9723     1.9370 Al            1 RES     
     479 Al          15.3035    59.4053     1.9370 Al            1 RES     
     480 Al          34.2787    59.4053     1.9370 Al            1 RES     
     481 Al          11.6603    32.8824     5.9892 Al            1 RES     
     482 Al           2.1727    49.3155     5.9892 Al            1 RES     
     483 Al          30.6355    32.8824     5.9892 Al            1 RES     
     484 Al          21.1479    49.3155     5.9892 Al            1 RES     
     485 Al          13.1308    42.9559     5.9892 Al            1 RES     
     486 Al           3.6432    59.3889     5.9892 Al            1 RES     
     487 Al          32.1060    42.9559     5.9892 Al            1 RES     
     488 Al          22.6184    59.3889     5.9892 Al            1 RES     
     489 Al           3.6717    39.1927     5.9892 Al            1 RES     
     490 Al          22.6469    39.1927     5.9892 Al            1 RES     
     491 Al          13.1593    55.6257     5.9892 Al            1 RES     
     492 Al          32.1345    55.6257     5.9892 Al            1 RES     
     493 Al           1.1480    46.4561     1.6533 Al            1 RES     
     494 Al          20.1232    46.4561     1.6533 Al            1 RES     
     495 Al          10.6356    62.8891     1.6533 Al            1 RES     
     496 Al          29.6108    62.8891     1.6533 Al            1 RES     
     497 Al          16.1194    43.4982     1.6533 Al            1 RES     
     498 Al           6.6318    59.9312     1.6533 Al            1 RES     
     499 Al          35.0946    43.4982     1.6533 Al            1 RES     
     500 Al          25.6070    59.9312     1.6533 Al            1 RES     
     501 Al           1.7078    41.5098     1.6533 Al            1 RES     
     502 Al          20.6830    41.5098     1.6533 Al            1 RES     
     503 Al          11.1954    57.9428     1.6533 Al            1 RES     
     504 Al          30.1706    57.9428     1.6533 Al            1 RES     
     505 Al           8.3396    35.7089     5.7055 Al            1 RES     
     506 Al          27.3148    35.7089     5.7055 Al            1 RES     
     507 Al          17.8272    52.1419     5.7055 Al            1 RES     
     508 Al          36.8024    52.1419     5.7055 Al            1 RES     
     509 Al          12.3434    38.6669     5.7055 Al            1 RES     
     510 Al           2.8558    55.0999     5.7055 Al            1 RES     
     511 Al          31.3186    38.6669     5.7055 Al            1 RES     
     512 Al          21.8310    55.0999     5.7055 Al            1 RES     
     513 Al           7.7798    40.6553     5.7055 Al            1 RES     
     514 Al          26.7550    40.6553     5.7055 Al            1 RES     
     515 Al          17.2674    57.0883     5.7055 Al            1 RES     
     516 Al          36.2426    57.0883     5.7055 Al            1 RES     
     517 Al          10.8064    35.6432     1.6047 Al            1 RES     
     518 Al           1.3188    52.0762     1.6047 Al            1 RES     
     519 Al          29.7816    35.6432     1.6047 Al            1 RES     
     520 Al          20.2940    52.0762     1.6047 Al            1 RES     
     521 Al          11.1669    40.8360     1.6047 Al            1 RES     
     522 Al           1.6793    57.2690     1.6047 Al            1 RES     
     523 Al          30.1421    40.8360     1.6047 Al            1 RES     
     524 Al          20.6545    57.2690     1.6047 Al            1 RES     
     525 Al           6.4895    38.5518     1.6047 Al            1 RES     
     526 Al          25.4647    38.5518     1.6047 Al            1 RES     
     527 Al          15.9771    54.9848     1.6047 Al            1 RES     
     528 Al          34.9523    54.9848     1.6047 Al            1 RES     
     529 Al          17.6564    46.5218     5.6569 Al            1 RES     
     530 Al           8.1688    62.9548     5.6569 Al            1 RES     
     531 Al          36.6316    46.5218     5.6569 Al            1 RES     
     532 Al          27.1440    62.9548     5.6569 Al            1 RES     
     533 Al          17.2959    41.3290     5.6569 Al            1 RES     
     534 Al           7.8083    57.7620     5.6569 Al            1 RES     
     535 Al          36.2711    41.3290     5.6569 Al            1 RES     
     536 Al          26.7835    57.7620     5.6569 Al            1 RES     
     537 Al           2.9981    43.6132     5.6569 Al            1 RES     
     538 Al          21.9733    43.6132     5.6569 Al            1 RES     
     539 Al          12.4857    60.0462     5.6569 Al            1 RES     
     540 Al          31.4609    60.0462     5.6569 Al            1 RES     
     541 P            0.9582    49.2826     2.9014 P             1 RES     
     542 P           19.9334    49.2826     2.9014 P             1 RES     
     543 P           10.4458    65.7156     2.9014 P             1 RES     
     544 P           29.4210    65.7156     2.9014 P             1 RES     
     545 P           13.7665    41.9206     2.9014 P             1 RES     
     546 P            4.2789    58.3536     2.9014 P             1 RES     
     547 P           32.7417    41.9206     2.9014 P             1 RES     
     548 P           23.2541    58.3536     2.9014 P             1 RES     
     549 P            4.2504    40.2609     2.9014 P             1 RES     
     550 P           23.2256    40.2609     2.9014 P             1 RES     
     551 P           13.7380    56.6939     2.9014 P             1 RES     
     552 P           32.7132    56.6939     2.9014 P             1 RES     
     553 P            8.5294    32.8824     6.9536 P             1 RES     
     554 P           27.5046    32.8824     6.9536 P             1 RES     
     555 P           18.0170    49.3155     6.9536 P             1 RES     
     556 P           36.9922    49.3155     6.9536 P             1 RES     
     557 P           14.6963    40.2444     6.9536 P             1 RES     
     558 P            5.2087    56.6774     6.9536 P             1 RES     
     559 P           33.6715    40.2444     6.9536 P             1 RES     
     560 P           24.1839    56.6774     6.9536 P             1 RES     
     561 P            5.2372    41.9042     6.9536 P             1 RES     
     562 P           24.2124    41.9042     6.9536 P             1 RES     
     563 P           14.7248    58.3372     6.9536 P             1 RES     
     564 P           33.7000    58.3372     6.9536 P             1 RES     
     565 P           17.1441    46.2589     2.5934 P             1 RES     
     566 P            7.6565    62.6919     2.5934 P             1 RES     
     567 P           36.1193    46.2589     2.5934 P             1 RES     
     568 P           26.6317    62.6919     2.5934 P             1 RES     
     569 P           17.7798    41.0168     2.5934 P             1 RES     
     570 P            8.2922    57.4498     2.5934 P             1 RES     
     571 P           36.7550    41.0168     2.5934 P             1 RES     
     572 P           27.2674    57.4498     2.5934 P             1 RES     
     573 P            3.0265    44.1884     2.5934 P             1 RES     
     574 P           22.0017    44.1884     2.5934 P             1 RES     
     575 P           12.5141    60.6214     2.5934 P             1 RES     
     576 P           31.4893    60.6214     2.5934 P             1 RES     
     577 P           11.3187    35.9061     6.6456 P             1 RES     
     578 P            1.8311    52.3391     6.6456 P             1 RES     
     579 P           30.2939    35.9061     6.6456 P             1 RES     
     580 P           20.8063    52.3391     6.6456 P             1 RES     
     581 P           10.6830    41.1482     6.6456 P             1 RES     
     582 P            1.1954    57.5813     6.6456 P             1 RES     
     583 P           29.6582    41.1482     6.6456 P             1 RES     
     584 P           20.1706    57.5813     6.6456 P             1 RES     
     585 P            6.4611    37.9767     6.6456 P             1 RES     
     586 P           25.4363    37.9767     6.6456 P             1 RES     
     587 P           15.9487    54.4097     6.6456 P             1 RES     
     588 P           34.9239    54.4097     6.6456 P             1 RES     
     589 P            7.8652    35.9061     2.5043 P             1 RES     
     590 P           26.8404    35.9061     2.5043 P             1 RES     
     591 P           17.3528    52.3391     2.5043 P             1 RES     
     592 P           36.3280    52.3391     2.5043 P             1 RES     
     593 P           12.4098    38.1574     2.5043 P             1 RES     
     594 P            2.9222    54.5904     2.5043 P             1 RES     
     595 P           31.3850    38.1574     2.5043 P             1 RES     
     596 P           21.8974    54.5904     2.5043 P             1 RES     
     597 P            8.1878    40.9675     2.5043 P             1 RES     
     598 P           27.1630    40.9675     2.5043 P             1 RES     
     599 P           17.6754    57.4005     2.5043 P             1 RES     
     600 P           36.6506    57.4005     2.5043 P             1 RES     
     601 P            1.6224    46.2589     6.5565 P             1 RES     
     602 P           20.5976    46.2589     6.5565 P             1 RES     
     603 P           11.1100    62.6919     6.5565 P             1 RES     
     604 P           30.0852    62.6919     6.5565 P             1 RES     
     605 P           16.0530    44.0076     6.5565 P             1 RES     
     606 P            6.5654    60.4406     6.5565 P             1 RES     
     607 P           35.0282    44.0076     6.5565 P             1 RES     
     608 P           25.5406    60.4406     6.5565 P             1 RES     
     609 P            1.2998    41.1975     6.5565 P             1 RES     
     610 P           20.2750    41.1975     6.5565 P             1 RES     
     611 P           10.7874    57.6306     6.5565 P             1 RES     
     612 P           29.7626    57.6306     6.5565 P             1 RES     
     613 O            8.9089    32.8824     2.7474 O             1 RES     
     614 O           27.8841    32.8824     2.7474 O             1 RES     
     615 O           18.3965    49.3155     2.7474 O             1 RES     
     616 O           37.3717    49.3155     2.7474 O             1 RES     
     617 O           14.5065    40.5731     2.7474 O             1 RES     
     618 O            5.0189    57.0061     2.7474 O             1 RES     
     619 O           33.4817    40.5731     2.7474 O             1 RES     
     620 O           23.9941    57.0061     2.7474 O             1 RES     
     621 O            5.0474    41.5755     2.7474 O             1 RES     
     622 O           24.0226    41.5755     2.7474 O             1 RES     
     623 O           14.5350    58.0085     2.7474 O             1 RES     
     624 O           33.5102    58.0085     2.7474 O             1 RES     
     625 O            0.5787    49.2826     6.7996 O             1 RES     
     626 O           19.5539    49.2826     6.7996 O             1 RES     
     627 O           10.0663    65.7156     6.7996 O             1 RES     
     628 O           29.0415    65.7156     6.7996 O             1 RES     
     629 O           13.9563    41.5919     6.7996 O             1 RES     
     630 O            4.4687    58.0249     6.7996 O             1 RES     
     631 O           32.9315    41.5919     6.7996 O             1 RES     
     632 O           23.4439    58.0249     6.7996 O             1 RES     
     633 O            4.4402    40.5895     6.7996 O             1 RES     
     634 O           23.4154    40.5895     6.7996 O             1 RES     
     635 O           13.9278    57.0225     6.7996 O             1 RES     
     636 O           32.9030    57.0225     6.7996 O             1 RES     
     637 O            8.0929    33.0139     0.2999 O             1 RES     
     638 O           27.0681    33.0139     0.2999 O             1 RES     
     639 O           17.5805    49.4469     0.2999 O             1 RES     
     640 O           36.5557    49.4469     0.2999 O             1 RES     
     641 O           14.8007    39.8007     0.2999 O             1 RES     
     642 O            5.3131    56.2337     0.2999 O             1 RES     
     643 O           33.7759    39.8007     0.2999 O             1 RES     
     644 O           24.2883    56.2337     0.2999 O             1 RES     
     645 O            5.5692    42.2164     0.2999 O             1 RES     
     646 O           24.5444    42.2164     0.2999 O             1 RES     
     647 O           15.0568    58.6494     0.2999 O             1 RES     
     648 O           34.0320    58.6494     0.2999 O             1 RES     
     649 O            1.3947    49.1511     4.3521 O             1 RES     
     650 O           20.3699    49.1511     4.3521 O             1 RES     
     651 O           10.8823    65.5841     4.3521 O             1 RES     
     652 O           29.8575    65.5841     4.3521 O             1 RES     
     653 O           13.6621    42.3643     4.3521 O             1 RES     
     654 O            4.1745    58.7973     4.3521 O             1 RES     
     655 O           32.6373    42.3643     4.3521 O             1 RES     
     656 O           23.1497    58.7973     4.3521 O             1 RES     
     657 O            3.9184    39.9486     4.3521 O             1 RES     
     658 O           22.8936    39.9486     4.3521 O             1 RES     
     659 O           13.4060    56.3816     4.3521 O             1 RES     
     660 O           32.3812    56.3816     4.3521 O             1 RES     
     661 O           16.6602    47.4585     1.8073 O             1 RES     
     662 O            7.1726    63.8915     1.8073 O             1 RES     
     663 O           35.6354    47.4585     1.8073 O             1 RES     
     664 O           26.1478    63.8915     1.8073 O             1 RES     
     665 O           16.9828    39.9979     1.8073 O             1 RES     
     666 O            7.4952    56.4309     1.8073 O             1 RES     
     667 O           35.9580    39.9979     1.8073 O             1 RES     
     668 O           26.4704    56.4309     1.8073 O             1 RES     
     669 O            4.3074    44.0076     1.8073 O             1 RES     
     670 O           23.2826    44.0076     1.8073 O             1 RES     
     671 O           13.7950    60.4406     1.8073 O             1 RES     
     672 O           32.7702    60.4406     1.8073 O             1 RES     
     673 O           11.8026    34.7065     5.8595 O             1 RES     
     674 O            2.3150    51.1395     5.8595 O             1 RES     
     675 O           30.7778    34.7065     5.8595 O             1 RES     
     676 O           21.2902    51.1395     5.8595 O             1 RES     
     677 O           11.4800    42.1671     5.8595 O             1 RES     
     678 O            1.9924    58.6001     5.8595 O             1 RES     
     679 O           30.4552    42.1671     5.8595 O             1 RES     
     680 O           20.9676    58.6001     5.8595 O             1 RES     
     681 O            5.1802    38.1574     5.8595 O             1 RES     
     682 O           24.1554    38.1574     5.8595 O             1 RES     
     683 O           14.6678    54.5904     5.8595 O             1 RES     
     684 O           33.6430    54.5904     5.8595 O             1 RES     
     685 O            7.1062    34.6901     2.0666 O             1 RES     
     686 O           26.0814    34.6901     2.0666 O             1 RES     
     687 O           16.5938    51.1231     2.0666 O             1 RES     
     688 O           35.5690    51.1231     2.0666 O             1 RES     
     689 O           13.8424    38.1081     2.0666 O             1 RES     
     690 O            4.3548    54.5411     2.0666 O             1 RES     
     691 O           32.8176    38.1081     2.0666 O             1 RES     
     692 O           23.3300    54.5411     2.0666 O             1 RES     
     693 O            7.5142    42.2328     2.0666 O             1 RES     
     694 O           26.4894    42.2328     2.0666 O             1 RES     
     695 O           17.0018    58.6658     2.0666 O             1 RES     
     696 O           35.9770    58.6658     2.0666 O             1 RES     
     697 O            2.3814    47.4750     6.1188 O             1 RES     
     698 O           21.3566    47.4750     6.1188 O             1 RES     
     699 O           11.8690    63.9080     6.1188 O             1 RES     
     700 O           30.8442    63.9080     6.1188 O             1 RES     
     701 O           14.6204    44.0569     6.1188 O             1 RES     
     702 O            5.1328    60.4899     6.1188 O             1 RES     
     703 O           33.5956    44.0569     6.1188 O             1 RES     
     704 O           24.1080    60.4899     6.1188 O             1 RES     
     705 O            1.9734    39.9322     6.1188 O             1 RES     
     706 O           20.9486    39.9322     6.1188 O             1 RES     
     707 O           11.4610    56.3652     6.1188 O             1 RES     
     708 O           30.4362    56.3652     6.1188 O             1 RES     
     709 O            1.4611    48.0830     2.1396 O             1 RES     
     710 O           20.4363    48.0830     2.1396 O             1 RES     
     711 O           10.9487    64.5160     2.1396 O             1 RES     
     712 O           29.9239    64.5160     2.1396 O             1 RES     
     713 O           14.5540    42.9559     2.1396 O             1 RES     
     714 O            5.0664    59.3889     2.1396 O             1 RES     
     715 O           33.5292    42.9559     2.1396 O             1 RES     
     716 O           24.0416    59.3889     2.1396 O             1 RES     
     717 O            2.9601    40.4252     2.1396 O             1 RES     
     718 O           21.9353    40.4252     2.1396 O             1 RES     
     719 O           12.4477    56.8582     2.1396 O             1 RES     
     720 O           31.4229    56.8582     2.1396 O             1 RES     
     721 O            8.0265    34.0821     6.1918 O             1 RES     
     722 O           27.0017    34.0821     6.1918 O             1 RES     
     723 O           17.5141    50.5151     6.1918 O             1 RES     
     724 O           36.4893    50.5151     6.1918 O             1 RES     
     725 O           13.9088    39.2092     6.1918 O             1 RES     
     726 O            4.4212    55.6422     6.1918 O             1 RES     
     727 O           32.8840    39.2092     6.1918 O             1 RES     
     728 O           23.3964    55.6422     6.1918 O             1 RES     
     729 O            6.5275    41.7398     6.1918 O             1 RES     
     730 O           25.5027    41.7398     6.1918 O             1 RES     
     731 O           16.0151    58.1728     6.1918 O             1 RES     
     732 O           34.9903    58.1728     6.1918 O             1 RES     
     733 O           11.0625    34.0492     2.2530 O             1 RES     
     734 O            1.5749    50.4822     2.2530 O             1 RES     
     735 O           30.0377    34.0492     2.2530 O             1 RES     
     736 O           20.5501    50.4822     2.2530 O             1 RES     
     737 O           12.4193    41.8549     2.2530 O             1 RES     
     738 O            2.9317    58.2879     2.2530 O             1 RES     
     739 O           31.3945    41.8549     2.2530 O             1 RES     
     740 O           21.9069    58.2879     2.2530 O             1 RES     
     741 O            4.9810    39.1270     2.2530 O             1 RES     
     742 O           23.9562    39.1270     2.2530 O             1 RES     
     743 O           14.4686    55.5600     2.2530 O             1 RES     
     744 O           33.4438    55.5600     2.2530 O             1 RES     
     745 O           17.4003    48.1158     6.3052 O             1 RES     
     746 O            7.9127    64.5488     6.3052 O             1 RES     
     747 O           36.3755    48.1158     6.3052 O             1 RES     
     748 O           26.8879    64.5488     6.3052 O             1 RES     
     749 O           16.0435    40.3102     6.3052 O             1 RES     
     750 O            6.5559    56.7432     6.3052 O             1 RES     
     751 O           35.0187    40.3102     6.3052 O             1 RES     
     752 O           25.5311    56.7432     6.3052 O             1 RES     
     753 O            4.5066    43.0380     6.3052 O             1 RES     
     754 O           23.4818    43.0380     6.3052 O             1 RES     
     755 O           13.9942    59.4710     6.3052 O             1 RES     
     756 O           32.9694    59.4710     6.3052 O             1 RES     
     757 O            2.4193    45.5030     2.2692 O             1 RES     
     758 O           21.3945    45.5030     2.2692 O             1 RES     
     759 O           11.9069    61.9360     2.2692 O             1 RES     
     760 O           30.8821    61.9360     2.2692 O             1 RES     
     761 O           16.3092    45.0757     2.2692 O             1 RES     
     762 O            6.8216    61.5087     2.2692 O             1 RES     
     763 O           35.2844    45.0757     2.2692 O             1 RES     
     764 O           25.7968    61.5087     2.2692 O             1 RES     
     765 O            0.2467    40.8853     2.2692 O             1 RES     
     766 O           19.2219    40.8853     2.2692 O             1 RES     
     767 O            9.7343    57.3183     2.2692 O             1 RES     
     768 O           28.7095    57.3183     2.2692 O             1 RES     
     769 O            7.0683    36.6620     6.3214 O             1 RES     
     770 O           26.0435    36.6620     6.3214 O             1 RES     
     771 O           16.5559    53.0950     6.3214 O             1 RES     
     772 O           35.5311    53.0950     6.3214 O             1 RES     
     773 O           12.1536    37.0893     6.3214 O             1 RES     
     774 O            2.6660    53.5223     6.3214 O             1 RES     
     775 O           31.1288    37.0893     6.3214 O             1 RES     
     776 O           21.6412    53.5223     6.3214 O             1 RES     
     777 O            9.2409    41.2797     6.3214 O             1 RES     
     778 O           28.2161    41.2797     6.3214 O             1 RES     
     779 O           18.7285    57.7127     6.3214 O             1 RES     
     780 O           37.7037    57.7127     6.3214 O             1 RES     
     781 O           18.6147    45.9138     2.2692 O             1 RES     
     782 O            9.1271    62.3468     2.2692 O             1 RES     
     783 O           37.5899    45.9138     2.2692 O             1 RES     
     784 O           28.1023    62.3468     2.2692 O             1 RES     
     785 O           17.3433    42.4629     2.2692 O             1 RES     
     786 O            7.8557    58.8959     2.2692 O             1 RES     
     787 O           36.3185    42.4629     2.2692 O             1 RES     
     788 O           26.8309    58.8959     2.2692 O             1 RES     
     789 O            1.9924    43.0873     2.2692 O             1 RES     
     790 O           20.9676    43.0873     2.2692 O             1 RES     
     791 O           11.4800    59.5203     2.2692 O             1 RES     
     792 O           30.4552    59.5203     2.2692 O             1 RES     
     793 O            9.8481    36.2512     6.3214 O             1 RES     
     794 O            0.3605    52.6842     6.3214 O             1 RES     
     795 O           28.8233    36.2512     6.3214 O             1 RES     
     796 O           19.3357    52.6842     6.3214 O             1 RES     
     797 O           11.1195    39.7021     6.3214 O             1 RES     
     798 O            1.6319    56.1351     6.3214 O             1 RES     
     799 O           30.0947    39.7021     6.3214 O             1 RES     
     800 O           20.6071    56.1351     6.3214 O             1 RES     
     801 O            7.4952    39.0777     6.3214 O             1 RES     
     802 O           26.4704    39.0777     6.3214 O             1 RES     
     803 O           16.9828    55.5107     6.3214 O             1 RES     
     804 O           35.9580    55.5107     6.3214 O             1 RES     
     805 O            1.1670    46.4232     7.9828 O             1 RES     
     806 O           20.1422    46.4232     7.9828 O             1 RES     
     807 O           10.6546    62.8562     7.9828 O             1 RES     
     808 O           29.6298    62.8562     7.9828 O             1 RES     
     809 O           16.1384    43.5310     7.9828 O             1 RES     
     810 O            6.6508    59.9640     7.9828 O             1 RES     
     811 O           35.1136    43.5310     7.9828 O             1 RES     
     812 O           25.6260    59.9640     7.9828 O             1 RES     
     813 O            1.6698    41.5098     7.9828 O             1 RES     
     814 O           20.6450    41.5098     7.9828 O             1 RES     
     815 O           11.1574    57.9428     7.9828 O             1 RES     
     816 O           30.1326    57.9428     7.9828 O             1 RES     
     817 O            8.3206    35.7418     3.9306 O             1 RES     
     818 O           27.2958    35.7418     3.9306 O             1 RES     
     819 O           17.8082    52.1748     3.9306 O             1 RES     
     820 O           36.7834    52.1748     3.9306 O             1 RES     
     821 O           12.3244    38.6340     3.9306 O             1 RES     
     822 O            2.8368    55.0670     3.9306 O             1 RES     
     823 O           31.2996    38.6340     3.9306 O             1 RES     
     824 O           21.8120    55.0670     3.9306 O             1 RES     
     825 O            7.8178    40.6553     3.9306 O             1 RES     
     826 O           26.7930    40.6553     3.9306 O             1 RES     
     827 O           17.3054    57.0883     3.9306 O             1 RES     
     828 O           36.2806    57.0883     3.9306 O             1 RES     
     829 O           16.9828    46.5383     4.0522 O             1 RES     
     830 O            7.4952    62.9713     4.0522 O             1 RES     
     831 O           35.9580    46.5383     4.0522 O             1 RES     
     832 O           26.4704    62.9713     4.0522 O             1 RES     
     833 O           17.6185    40.7374     4.0522 O             1 RES     
     834 O            8.1309    57.1704     4.0522 O             1 RES     
     835 O           36.5937    40.7374     4.0522 O             1 RES     
     836 O           27.1061    57.1704     4.0522 O             1 RES     
     837 O            3.3491    44.1884     4.0522 O             1 RES     
     838 O           22.3243    44.1884     4.0522 O             1 RES     
     839 O           12.8367    60.6214     4.0522 O             1 RES     
     840 O           31.8119    60.6214     4.0522 O             1 RES     
     841 O           11.4800    35.6268     0.0000 O             1 RES     
     842 O           11.4800    35.6268     8.1044 O             1 RES     
     843 O            1.9924    52.0598     0.0000 O             1 RES     
     844 O            1.9924    52.0598     8.1044 O             1 RES     
     845 O           30.4552    35.6268     0.0000 O             1 RES     
     846 O           30.4552    35.6268     8.1044 O             1 RES     
     847 O           20.9676    52.0598     0.0000 O             1 RES     
     848 O           20.9676    52.0598     8.1044 O             1 RES     
     849 O           10.8443    41.4276     0.0000 O             1 RES     
     850 O           10.8443    41.4276     8.1044 O             1 RES     
     851 O            1.3567    57.8606     0.0000 O             1 RES     
     852 O            1.3567    57.8606     8.1044 O             1 RES     
     853 O           29.8195    41.4276     0.0000 O             1 RES     
     854 O           29.8195    41.4276     8.1044 O             1 RES     
     855 O           20.3319    57.8606     0.0000 O             1 RES     
     856 O           20.3319    57.8606     8.1044 O             1 RES     
     857 O            6.1385    37.9767     0.0000 O             1 RES     
     858 O            6.1385    37.9767     8.1044 O             1 RES     
     859 O           25.1137    37.9767     0.0000 O             1 RES     
     860 O           25.1137    37.9767     8.1044 O             1 RES     
     861 O           15.6261    54.4097     0.0000 O             1 RES     
     862 O           15.6261    54.4097     8.1044 O             1 RES     
     863 O           34.6013    54.4097     0.0000 O             1 RES     
     864 O           34.6013    54.4097     8.1044 O             1 RES     
     865 O            9.0607    36.0704     1.6047 O             1 RES     
     866 O           28.0359    36.0704     1.6047 O             1 RES     
     867 O           18.5483    52.5035     1.6047 O             1 RES     
     868 O           37.5235    52.5035     1.6047 O             1 RES     
     869 O           11.6697    39.1106     1.6047 O             1 RES     
     870 O            2.1821    55.5436     1.6047 O             1 RES     
     871 O           30.6449    39.1106     1.6047 O             1 RES     
     872 O           21.1573    55.5436     1.6047 O             1 RES     
     873 O            7.7324    39.8500     1.6047 O             1 RES     
     874 O           26.7076    39.8500     1.6047 O             1 RES     
     875 O           17.2200    56.2830     1.6047 O             1 RES     
     876 O           36.1952    56.2830     1.6047 O             1 RES     
     877 O            0.4269    46.0946     5.6569 O             1 RES     
     878 O           19.4021    46.0946     5.6569 O             1 RES     
     879 O            9.9145    62.5276     5.6569 O             1 RES     
     880 O           28.8897    62.5276     5.6569 O             1 RES     
     881 O           16.7931    43.0545     5.6569 O             1 RES     
     882 O            7.3055    59.4875     5.6569 O             1 RES     
     883 O           35.7683    43.0545     5.6569 O             1 RES     
     884 O           26.2807    59.4875     5.6569 O             1 RES     
     885 O            1.7552    42.3150     5.6569 O             1 RES     
     886 O           20.7304    42.3150     5.6569 O             1 RES     
     887 O           11.2428    58.7480     5.6569 O             1 RES     
     888 O           30.2180    58.7480     5.6569 O             1 RES     
     889 O           11.7836    36.7442     2.5529 O             1 RES     
     890 O            2.2960    53.1772     2.5529 O             1 RES     
     891 O           30.7588    36.7442     2.5529 O             1 RES     
     892 O           21.2712    53.1772     2.5529 O             1 RES     
     893 O            9.7248    41.1318     2.5529 O             1 RES     
     894 O            0.2372    57.5648     2.5529 O             1 RES     
     895 O           28.7000    41.1318     2.5529 O             1 RES     
     896 O           19.2124    57.5648     2.5529 O             1 RES     
     897 O            6.9544    37.1550     2.5529 O             1 RES     
     898 O           25.9296    37.1550     2.5529 O             1 RES     
     899 O           16.4420    53.5880     2.5529 O             1 RES     
     900 O           35.4172    53.5880     2.5529 O             1 RES     
     901 O           16.6792    45.4208     6.6051 O             1 RES     
     902 O            7.1916    61.8538     6.6051 O             1 RES     
     903 O           35.6544    45.4208     6.6051 O             1 RES     
     904 O           26.1668    61.8538     6.6051 O             1 RES     
     905 O           18.7380    41.0332     6.6051 O             1 RES     
     906 O            9.2504    57.4662     6.6051 O             1 RES     
     907 O           37.7132    41.0332     6.6051 O             1 RES     
     908 O           28.2256    57.4662     6.6051 O             1 RES     
     909 O            2.5332    45.0100     6.6051 O             1 RES     
     910 O           21.5084    45.0100     6.6051 O             1 RES     
     911 O           12.0208    61.4430     6.6051 O             1 RES     
     912 O           30.9960    61.4430     6.6051 O             1 RES     
     913 O            1.1670    46.4232    -0.1216 O             1 RES     
     914 O           20.1422    46.4232    -0.1216 O             1 RES     
     915 O           10.6546    62.8562    -0.1216 O             1 RES     
     916 O           29.6298    62.8562    -0.1216 O             1 RES     
     917 O           16.1384    43.5310    -0.1216 O             1 RES     
     918 O            6.6508    59.9640    -0.1216 O             1 RES     
     919 O           35.1136    43.5310    -0.1216 O             1 RES     
     920 O           25.6260    59.9640    -0.1216 O             1 RES     
     921 O            1.6698    41.5098    -0.1216 O             1 RES     
     922 O           20.6450    41.5098    -0.1216 O             1 RES     
     923 O           11.1574    57.9428    -0.1216 O             1 RES     
     924 O           30.1326    57.9428    -0.1216 O             1 RES     
     925 O            8.0929    33.0139     8.4043 O             1 RES     
     926 O           27.0681    33.0139     8.4043 O             1 RES     
     927 O           17.5805    49.4469     8.4043 O             1 RES     
     928 O           36.5557    49.4469     8.4043 O             1 RES     
     929 O           14.8007    39.8007     8.4043 O             1 RES     
     930 O            5.3131    56.2337     8.4043 O             1 RES     
     931 O           33.7759    39.8007     8.4043 O             1 RES     
     932 O           24.2883    56.2337     8.4043 O             1 RES     
     933 O            5.5692    42.2164     8.4043 O             1 RES     
     934 O           24.5444    42.2164     8.4043 O             1 RES     
     935 O           15.0568    58.6494     8.4043 O             1 RES     
     936 O           34.0320    58.6494     8.4043 O             1 RES     
     937 Al          16.8025    82.1486     1.9370 Al            1 RES     
     938 Al           7.3149    98.5816     1.9370 Al            1 RES     
     939 Al          35.7777    82.1486     1.9370 Al            1 RES     
     940 Al          26.2901    98.5816     1.9370 Al            1 RES     
     941 Al          15.3320    72.0752     1.9370 Al            1 RES     
     942 Al           5.8444    88.5082     1.9370 Al            1 RES     
     943 Al          34.3072    72.0752     1.9370 Al            1 RES     
     944 Al          24.8196    88.5082     1.9370 Al            1 RES     
     945 Al           5.8159    75.8383     1.9370 Al            1 RES     
     946 Al          24.7911    75.8383     1.9370 Al            1 RES     
     947 Al          15.3035    92.2713     1.9370 Al            1 RES     
     948 Al          34.2787    92.2713     1.9370 Al            1 RES     
     949 Al          11.6603    65.7485     5.9892 Al            1 RES     
     950 Al           2.1727    82.1815     5.9892 Al            1 RES     
     951 Al          30.6355    65.7485     5.9892 Al            1 RES     
     952 Al          21.1479    82.1815     5.9892 Al            1 RES     
     953 Al          13.1308    75.8219     5.9892 Al            1 RES     
     954 Al           3.6432    92.2549     5.9892 Al            1 RES     
     955 Al          32.1060    75.8219     5.9892 Al            1 RES     
     956 Al          22.6184    92.2549     5.9892 Al            1 RES     
     957 Al           3.6717    72.0587     5.9892 Al            1 RES     
     958 Al          22.6469    72.0587     5.9892 Al            1 RES     
     959 Al          13.1593    88.4917     5.9892 Al            1 RES     
     960 Al          32.1345    88.4917     5.9892 Al            1 RES     
     961 Al           1.1480    79.3221     1.6533 Al            1 RES     
     962 Al          20.1232    79.3221     1.6533 Al            1 RES     
     963 Al          10.6356    95.7551     1.6533 Al            1 RES     
     964 Al          29.6108    95.7551     1.6533 Al            1 RES     
     965 Al          16.1194    76.3642     1.6533 Al            1 RES     
     966 Al           6.6318    92.7972     1.6533 Al            1 RES     
     967 Al          35.0946    76.3642     1.6533 Al            1 RES     
     968 Al          25.6070    92.7972     1.6533 Al            1 RES     
     969 Al           1.7078    74.3758     1.6533 Al            1 RES     
     970 Al          20.6830    74.3758     1.6533 Al            1 RES     
     971 Al          11.1954    90.8088     1.6533 Al            1 RES     
     972 Al          30.1706    90.8088     1.6533 Al            1 RES     
     973 Al           8.3396    68.5749     5.7055 Al            1 RES     
     974 Al          27.3148    68.5749     5.7055 Al            1 RES     
     975 Al          17.8272    85.0079     5.7055 Al            1 RES     
     976 Al          36.8024    85.0079     5.7055 Al            1 RES     
     977 Al          12.3434    71.5329     5.7055 Al            1 RES     
     978 Al           2.8558    87.9659     5.7055 Al            1 RES     
     979 Al          31.3186    71.5329     5.7055 Al            1 RES     
     980 Al          21.8310    87.9659     5.7055 Al            1 RES     
     981 Al           7.7798    73.5213     5.7055 Al            1 RES     
     982 Al          26.7550    73.5213     5.7055 Al            1 RES     
     983 Al          17.2674    89.9543     5.7055 Al            1 RES     
     984 Al          36.2426    89.9543     5.7055 Al            1 RES     
     985 Al          10.8064    68.5092     1.6047 Al            1 RES     
     986 Al           1.3188    84.9422     1.6047 Al            1 RES     
     987 Al          29.7816    68.5092     1.6047 Al            1 RES     
     988 Al          20.2940    84.9422     1.6047 Al            1 RES     
     989 Al          11.1669    73.7020     1.6047 Al            1 RES     
     990 Al           1.6793    90.1350     1.6047 Al            1 RES     
     991 Al          30.1421    73.7020     1.6047 Al            1 RES     
     992 Al          20.6545    90.1350     1.6047 Al            1 RES     
     993 Al           6.4895    71.4178     1.6047 Al            1 RES     
     994 Al          25.4647    71.4178     1.6047 Al            1 RES     
     995 Al          15.9771    87.8508     1.6047 Al            1 RES     
     996 Al          34.9523    87.8508     1.6047 Al            1 RES     
     997 Al          17.6564    79.3878     5.6569 Al            1 RES     
     998 Al           8.1688    95.8209     5.6569 Al            1 RES     
     999 Al          36.6316    79.3878     5.6569 Al            1 RES     
    1000 Al          27.1440    95.8209     5.6569 Al            1 RES     
    1001 Al          17.2959    74.1950     5.6569 Al            1 RES     
    1002 Al           7.8083    90.6280     5.6569 Al            1 RES     
    1003 Al          36.2711    74.1950     5.6569 Al            1 RES     
    1004 Al          26.7835    90.6280     5.6569 Al            1 RES     
    1005 Al           2.9981    76.4792     5.6569 Al            1 RES     
    1006 Al          21.9733    76.4792     5.6569 Al            1 RES     
    1007 Al          12.4857    92.9122     5.6569 Al            1 RES     
    1008 Al          31.4609    92.9122     5.6569 Al            1 RES     
    1009 P            0.9582    82.1486     2.9014 P             1 RES     
    1010 P           19.9334    82.1486     2.9014 P             1 RES     
    1011 P           10.4458    98.5816     2.9014 P             1 RES     
    1012 P           29.4210    98.5816     2.9014 P             1 RES     
    1013 P           13.7665    74.7866     2.9014 P             1 RES     
    1014 P            4.2789    91.2196     2.9014 P             1 RES     
    1015 P           32.7417    74.7866     2.9014 P             1 RES     
    1016 P           23.2541    91.2196     2.9014 P             1 RES     
    1017 P            4.2504    73.1269     2.9014 P             1 RES     
    1018 P           23.2256    73.1269     2.9014 P             1 RES     
    1019 P           13.7380    89.5599     2.9014 P             1 RES     
    1020 P           32.7132    89.5599     2.9014 P             1 RES     
    1021 P            8.5294    65.7485     6.9536 P             1 RES     
    1022 P           27.5046    65.7485     6.9536 P             1 RES     
    1023 P           18.0170    82.1815     6.9536 P             1 RES     
    1024 P           36.9922    82.1815     6.9536 P             1 RES     
    1025 P           14.6963    73.1104     6.9536 P             1 RES     
    1026 P            5.2087    89.5434     6.9536 P             1 RES     
    1027 P           33.6715    73.1104     6.9536 P             1 RES     
    1028 P           24.1839    89.5434     6.9536 P             1 RES     
    1029 P            5.2372    74.7702     6.9536 P             1 RES     
    1030 P           24.2124    74.7702     6.9536 P             1 RES     
    1031 P           14.7248    91.2032     6.9536 P             1 RES     
    1032 P           33.7000    91.2032     6.9536 P             1 RES     
    1033 P           17.1441    79.1249     2.5934 P             1 RES     
    1034 P            7.6565    95.5579     2.5934 P             1 RES     
    1035 P           36.1193    79.1249     2.5934 P             1 RES     
    1036 P           26.6317    95.5579     2.5934 P             1 RES     
    1037 P           17.7798    73.8828     2.5934 P             1 RES     
    1038 P            8.2922    90.3158     2.5934 P             1 RES     
    1039 P           36.7550    73.8828     2.5934 P             1 RES     
    1040 P           27.2674    90.3158     2.5934 P             1 RES     
    1041 P            3.0265    77.0544     2.5934 P             1 RES     
    1042 P           22.0017    77.0544     2.5934 P             1 RES     
    1043 P           12.5141    93.4874     2.5934 P             1 RES     
    1044 P           31.4893    93.4874     2.5934 P             1 RES     
    1045 P           11.3187    68.7721     6.6456 P             1 RES     
    1046 P            1.8311    85.2051     6.6456 P             1 RES     
    1047 P           30.2939    68.7721     6.6456 P             1 RES     
    1048 P           20.8063    85.2051     6.6456 P             1 RES     
    1049 P           10.6830    74.0143     6.6456 P             1 RES     
    1050 P            1.1954    90.4473     6.6456 P             1 RES     
    1051 P           29.6582    74.0143     6.6456 P             1 RES     
    1052 P           20.1706    90.4473     6.6456 P             1 RES     
    1053 P            6.4611    70.8427     6.6456 P             1 RES     
    1054 P           25.4363    70.8427     6.6456 P             1 RES     
    1055 P           15.9487    87.2757     6.6456 P             1 RES     
    1056 P           34.9239    87.2757     6.6456 P             1 RES     
    1057 P            7.8652    68.7721     2.5043 P             1 RES     
    1058 P           26.8404    68.7721     2.5043 P             1 RES     
    1059 P           17.3528    85.2051     2.5043 P             1 RES     
    1060 P           36.3280    85.2051     2.5043 P             1 RES     
    1061 P           12.4098    71.0234     2.5043 P             1 RES     
    1062 P            2.9222    87.4565     2.5043 P             1 RES     
    1063 P           31.3850    71.0234     2.5043 P             1 RES     
    1064 P           21.8974    87.4565     2.5043 P             1 RES     
    1065 P            8.1878    73.8335     2.5043 P             1 RES     
    1066 P           27.1630    73.8335     2.5043 P             1 RES     
    1067 P           17.6754    90.2665     2.5043 P             1 RES     
    1068 P           36.6506    90.2665     2.5043 P             1 RES     
    1069 P            1.6224    79.1249     6.5565 P             1 RES     
    1070 P           20.5976    79.1249     6.5565 P             1 RES     
    1071 P           11.1100    95.5579     6.5565 P             1 RES     
    1072 P           30.0852    95.5579     6.5565 P             1 RES     
    1073 P           16.0530    76.8736     6.5565 P             1 RES     
    1074 P            6.5654    93.3066     6.5565 P             1 RES     
    1075 P           35.0282    76.8736     6.5565 P             1 RES     
    1076 P           25.5406    93.3066     6.5565 P             1 RES     
    1077 P            1.2998    74.0636     6.5565 P             1 RES     
    1078 P           20.2750    74.0636     6.5565 P             1 RES     
    1079 P           10.7874    90.4966     6.5565 P             1 RES     
    1080 P           29.7626    90.4966     6.5565 P             1 RES     
    1081 O            8.9089    65.7485     2.7474 O             1 RES     
    1082 O           27.8841    65.7485     2.7474 O             1 RES     
    1083 O           18.3965    82.1815     2.7474 O             1 RES     
    1084 O           37.3717    82.1815     2.7474 O             1 RES     
    1085 O           14.5065    73.4391     2.7474 O             1 RES     
    1086 O            5.0189    89.8721     2.7474 O             1 RES     
    1087 O           33.4817    73.4391     2.7474 O             1 RES     
    1088 O           23.9941    89.8721     2.7474 O             1 RES     
    1089 O            5.0474    74.4415     2.7474 O             1 RES     
    1090 O           24.0226    74.4415     2.7474 O             1 RES     
    1091 O           14.5350    90.8745     2.7474 O             1 RES     
    1092 O           33.5102    90.8745     2.7474 O             1 RES     
    1093 O            0.5787    82.1486     6.7996 O             1 RES     
    1094 O           19.5539    82.1486     6.7996 O             1 RES     
    1095 O           10.0663    98.5816     6.7996 O             1 RES     
    1096 O           29.0415    98.5816     6.7996 O             1 RES     
    1097 O           13.9563    74.4579     6.7996 O             1 RES     
    1098 O            4.4687    90.8910     6.7996 O             1 RES     
    1099 O           32.9315    74.4579     6.7996 O             1 RES     
    1100 O           23.4439    90.8910     6.7996 O             1 RES     
    1101 O            4.4402    73.4555     6.7996 O             1 RES     
    1102 O           23.4154    73.4555     6.7996 O             1 RES     
    1103 O           13.9278    89.8885     6.7996 O             1 RES     
    1104 O           32.9030    89.8885     6.7996 O             1 RES     
    1105 O            8.0929    65.8799     0.2999 O             1 RES     
    1106 O           27.0681    65.8799     0.2999 O             1 RES     
    1107 O           17.5805    82.3129     0.2999 O             1 RES     
    1108 O           36.5557    82.3129     0.2999 O             1 RES     
    1109 O           14.8007    72.6667     0.2999 O             1 RES     
    1110 O            5.3131    89.0998     0.2999 O             1 RES     
    1111 O           33.7759    72.6667     0.2999 O             1 RES     
    1112 O           24.2883    89.0998     0.2999 O             1 RES     
    1113 O            5.5692    75.0824     0.2999 O             1 RES     
    1114 O           24.5444    75.0824     0.2999 O             1 RES     
    1115 O           15.0568    91.5154     0.2999 O             1 RES     
    1116 O           34.0320    91.5154     0.2999 O             1 RES     
    1117 O            1.3947    82.0171     4.3521 O             1 RES     
    1118 O           20.3699    82.0171     4.3521 O             1 RES     
    1119 O           10.8823    98.4501     4.3521 O             1 RES     
    1120 O           29.8575    98.4501     4.3521 O             1 RES     
    1121 O           13.6621    75.2303     4.3521 O             1 RES     
    1122 O            4.1745    91.6633     4.3521 O             1 RES     
    1123 O           32.6373    75.2303     4.3521 O             1 RES     
    1124 O           23.1497    91.6633     4.3521 O             1 RES     
    1125 O            3.9184    72.8146     4.3521 O             1 RES     
    1126 O           22.8936    72.8146     4.3521 O             1 RES     
    1127 O           13.4060    89.2477     4.3521 O             1 RES     
    1128 O           32.3812    89.2477     4.3521 O             1 RES     
    1129 O           16.6602    80.3245     1.8073 O             1 RES     
    1130 O            7.1726    96.7575     1.8073 O             1 RES     
    1131 O           35.6354    80.3245     1.8073 O             1 RES     
    1132 O           26.1478    96.7575     1.8073 O             1 RES     
    1133 O           16.9828    72.8639     1.8073 O             1 RES     
    1134 O            7.4952    89.2970     1.8073 O             1 RES     
    1135 O           35.9580    72.8639     1.8073 O             1 RES     
    1136 O           26.4704    89.2970     1.8073 O             1 RES     
    1137 O            4.3074    76.8736     1.8073 O             1 RES     
    1138 O           23.2826    76.8736     1.8073 O             1 RES     
    1139 O           13.7950    93.3066     1.8073 O             1 RES     
    1140 O           32.7702    93.3066     1.8073 O             1 RES     
    1141 O           11.8026    67.5725     5.8595 O             1 RES     
    1142 O            2.3150    84.0055     5.8595 O             1 RES     
    1143 O           30.7778    67.5725     5.8595 O             1 RES     
    1144 O           21.2902    84.0055     5.8595 O             1 RES     
    1145 O           11.4800    75.0331     5.8595 O             1 RES     
    1146 O            1.9924    91.4661     5.8595 O             1 RES     
    1147 O           30.4552    75.0331     5.8595 O             1 RES     
    1148 O           20.9676    91.4661     5.8595 O             1 RES     
    1149 O            5.1802    71.0234     5.8595 O             1 RES     
    1150 O           24.1554    71.0234     5.8595 O             1 RES     
    1151 O           14.6678    87.4565     5.8595 O             1 RES     
    1152 O           33.6430    87.4565     5.8595 O             1 RES     
    1153 O            7.1062    67.5561     2.0666 O             1 RES     
    1154 O           26.0814    67.5561     2.0666 O             1 RES     
    1155 O           16.5938    83.9891     2.0666 O             1 RES     
    1156 O           35.5690    83.9891     2.0666 O             1 RES     
    1157 O           13.8424    70.9741     2.0666 O             1 RES     
    1158 O            4.3548    87.4072     2.0666 O             1 RES     
    1159 O           32.8176    70.9741     2.0666 O             1 RES     
    1160 O           23.3300    87.4072     2.0666 O             1 RES     
    1161 O            7.5142    75.0988     2.0666 O             1 RES     
    1162 O           26.4894    75.0988     2.0666 O             1 RES     
    1163 O           17.0018    91.5318     2.0666 O             1 RES     
    1164 O           35.9770    91.5318     2.0666 O             1 RES     
    1165 O            2.3814    80.3410     6.1188 O             1 RES     
    1166 O           21.3566    80.3410     6.1188 O             1 RES     
    1167 O           11.8690    96.7740     6.1188 O             1 RES     
    1168 O           30.8442    96.7740     6.1188 O             1 RES     
    1169 O           14.6204    76.9229     6.1188 O             1 RES     
    1170 O            5.1328    93.3559     6.1188 O             1 RES     
    1171 O           33.5956    76.9229     6.1188 O             1 RES     
    1172 O           24.1080    93.3559     6.1188 O             1 RES     
    1173 O            1.9734    72.7982     6.1188 O             1 RES     
    1174 O           20.9486    72.7982     6.1188 O             1 RES     
    1175 O           11.4610    89.2312     6.1188 O             1 RES     
    1176 O           30.4362    89.2312     6.1188 O             1 RES     
    1177 O            1.4611    80.9490     2.1396 O             1 RES     
    1178 O           20.4363    80.9490     2.1396 O             1 RES     
    1179 O           10.9487    97.3820     2.1396 O             1 RES     
    1180 O           29.9239    97.3820     2.1396 O             1 RES     
    1181 O           14.5540    75.8219     2.1396 O             1 RES     
    1182 O            5.0664    92.2549     2.1396 O             1 RES     
    1183 O           33.5292    75.8219     2.1396 O             1 RES     
    1184 O           24.0416    92.2549     2.1396 O             1 RES     
    1185 O            2.9601    73.2912     2.1396 O             1 RES     
    1186 O           21.9353    73.2912     2.1396 O             1 RES     
    1187 O           12.4477    89.7242     2.1396 O             1 RES     
    1188 O           31.4229    89.7242     2.1396 O             1 RES     
    1189 O            8.0265    66.9481     6.1918 O             1 RES     
    1190 O           27.0017    66.9481     6.1918 O             1 RES     
    1191 O           17.5141    83.3811     6.1918 O             1 RES     
    1192 O           36.4893    83.3811     6.1918 O             1 RES     
    1193 O           13.9088    72.0752     6.1918 O             1 RES     
    1194 O            4.4212    88.5082     6.1918 O             1 RES     
    1195 O           32.8840    72.0752     6.1918 O             1 RES     
    1196 O           23.3964    88.5082     6.1918 O             1 RES     
    1197 O            6.5275    74.6058     6.1918 O             1 RES     
    1198 O           25.5027    74.6058     6.1918 O             1 RES     
    1199 O           16.0151    91.0389     6.1918 O             1 RES     
    1200 O           34.9903    91.0389     6.1918 O             1 RES     
    1201 O           11.0625    66.9152     2.2530 O             1 RES     
    1202 O            1.5749    83.3482     2.2530 O             1 RES     
    1203 O           30.0377    66.9152     2.2530 O             1 RES     
    1204 O           20.5501    83.3482     2.2530 O             1 RES     
    1205 O           12.4193    74.7209     2.2530 O             1 RES     
    1206 O            2.9317    91.1539     2.2530 O             1 RES     
    1207 O           31.3945    74.7209     2.2530 O             1 RES     
    1208 O           21.9069    91.1539     2.2530 O             1 RES     
    1209 O            4.9810    71.9930     2.2530 O             1 RES     
    1210 O           23.9562    71.9930     2.2530 O             1 RES     
    1211 O           14.4686    88.4260     2.2530 O             1 RES     
    1212 O           33.4438    88.4260     2.2530 O             1 RES     
    1213 O           17.4003    80.9818     6.3052 O             1 RES     
    1214 O            7.9127    97.4149     6.3052 O             1 RES     
    1215 O           36.3755    80.9818     6.3052 O             1 RES     
    1216 O           26.8879    97.4149     6.3052 O             1 RES     
    1217 O           16.0435    73.1762     6.3052 O             1 RES     
    1218 O            6.5559    89.6092     6.3052 O             1 RES     
    1219 O           35.0187    73.1762     6.3052 O             1 RES     
    1220 O           25.5311    89.6092     6.3052 O             1 RES     
    1221 O            4.5066    75.9041     6.3052 O             1 RES     
    1222 O           23.4818    75.9041     6.3052 O             1 RES     
    1223 O           13.9942    92.3371     6.3052 O             1 RES     
    1224 O           32.9694    92.3371     6.3052 O             1 RES     
    1225 O            2.4193    78.3690     2.2692 O             1 RES     
    1226 O           21.3945    78.3690     2.2692 O             1 RES     
    1227 O           11.9069    94.8020     2.2692 O             1 RES     
    1228 O           30.8821    94.8020     2.2692 O             1 RES     
    1229 O           16.3092    77.9417     2.2692 O             1 RES     
    1230 O            6.8216    94.3748     2.2692 O             1 RES     
    1231 O           35.2844    77.9417     2.2692 O             1 RES     
    1232 O           25.7968    94.3748     2.2692 O             1 RES     
    1233 O            0.2467    73.7513     2.2692 O             1 RES     
    1234 O           19.2219    73.7513     2.2692 O             1 RES     
    1235 O            9.7343    90.1843     2.2692 O             1 RES     
    1236 O           28.7095    90.1843     2.2692 O             1 RES     
    1237 O            7.0683    69.5280     6.3214 O             1 RES     
    1238 O           26.0435    69.5280     6.3214 O             1 RES     
    1239 O           16.5559    85.9611     6.3214 O             1 RES     
    1240 O           35.5311    85.9611     6.3214 O             1 RES     
    1241 O           12.1536    69.9553     6.3214 O             1 RES     
    1242 O            2.6660    86.3883     6.3214 O             1 RES     
    1243 O           31.1288    69.9553     6.3214 O             1 RES     
    1244 O           21.6412    86.3883     6.3214 O             1 RES     
    1245 O            9.2409    74.1457     6.3214 O             1 RES     
    1246 O           28.2161    74.1457     6.3214 O             1 RES     
    1247 O           18.7285    90.5787     6.3214 O             1 RES     
    1248 O           37.7037    90.5787     6.3214 O             1 RES     
    1249 O           18.6147    78.7798     2.2692 O             1 RES     
    1250 O            9.1271    95.2128     2.2692 O             1 RES     
    1251 O           37.5899    78.7798     2.2692 O             1 RES     
    1252 O           28.1023    95.2128     2.2692 O             1 RES     
    1253 O           17.3433    75.3289     2.2692 O             1 RES     
    1254 O            7.8557    91.7619     2.2692 O             1 RES     
    1255 O           36.3185    75.3289     2.2692 O             1 RES     
    1256 O           26.8309    91.7619     2.2692 O             1 RES     
    1257 O            1.9924    75.9534     2.2692 O             1 RES     
    1258 O           20.9676    75.9534     2.2692 O             1 RES     
    1259 O           11.4800    92.3864     2.2692 O             1 RES     
    1260 O           30.4552    92.3864     2.2692 O             1 RES     
    1261 O            9.8481    69.1172     6.3214 O             1 RES     
    1262 O            0.3605    85.5502     6.3214 O             1 RES     
    1263 O           28.8233    69.1172     6.3214 O             1 RES     
    1264 O           19.3357    85.5502     6.3214 O             1 RES     
    1265 O           11.1195    72.5682     6.3214 O             1 RES     
    1266 O            1.6319    89.0012     6.3214 O             1 RES     
    1267 O           30.0947    72.5682     6.3214 O             1 RES     
    1268 O           20.6071    89.0012     6.3214 O             1 RES     
    1269 O            7.4952    71.9437     6.3214 O             1 RES     
    1270 O           26.4704    71.9437     6.3214 O             1 RES     
    1271 O           16.9828    88.3767     6.3214 O             1 RES     
    1272 O           35.9580    88.3767     6.3214 O             1 RES     
    1273 O            1.1670    79.2893     7.9828 O             1 RES     
    1274 O           20.1422    79.2893     7.9828 O             1 RES     
    1275 O           10.6546    95.7223     7.9828 O             1 RES     
    1276 O           29.6298    95.7223     7.9828 O             1 RES     
    1277 O           16.1384    76.3970     7.9828 O             1 RES     
    1278 O            6.6508    92.8300     7.9828 O             1 RES     
    1279 O           35.1136    76.3970     7.9828 O             1 RES     
    1280 O           25.6260    92.8300     7.9828 O             1 RES     
    1281 O            1.6698    74.3758     7.9828 O             1 RES     
    1282 O           20.6450    74.3758     7.9828 O             1 RES     
    1283 O           11.1574    90.8088     7.9828 O             1 RES     
    1284 O           30.1326    90.8088     7.9828 O             1 RES     
    1285 O            8.3206    68.6078     3.9306 O             1 RES     
    1286 O           27.2958    68.6078     3.9306 O             1 RES     
    1287 O           17.8082    85.0408     3.9306 O             1 RES     
    1288 O           36.7834    85.0408     3.9306 O             1 RES     
    1289 O           12.3244    71.5000     3.9306 O             1 RES     
    1290 O            2.8368    87.9330     3.9306 O             1 RES     
    1291 O           31.2996    71.5000     3.9306 O             1 RES     
    1292 O           21.8120    87.9330     3.9306 O             1 RES     
    1293 O            7.8178    73.5213     3.9306 O             1 RES     
    1294 O           26.7930    73.5213     3.9306 O             1 RES     
    1295 O           17.3054    89.9543     3.9306 O             1 RES     
    1296 O           36.2806    89.9543     3.9306 O             1 RES     
    1297 O           16.9828    79.4043     4.0522 O             1 RES     
    1298 O            7.4952    95.8373     4.0522 O             1 RES     
    1299 O           35.9580    79.4043     4.0522 O             1 RES     
    1300 O           26.4704    95.8373     4.0522 O             1 RES     
    1301 O           17.6185    73.6034     4.0522 O             1 RES     
    1302 O            8.1309    90.0364     4.0522 O             1 RES     
    1303 O           36.5937    73.6034     4.0522 O             1 RES     
    1304 O           27.1061    90.0364     4.0522 O             1 RES     
    1305 O            3.3491    77.0544     4.0522 O             1 RES     
    1306 O           22.3243    77.0544     4.0522 O             1 RES     
    1307 O           12.8367    93.4874     4.0522 O             1 RES     
    1308 O           31.8119    93.4874     4.0522 O             1 RES     
    1309 O           11.4800    68.4928     0.0000 O             1 RES     
    1310 O           11.4800    68.4928     8.1044 O             1 RES     
    1311 O            1.9924    84.9258     0.0000 O             1 RES     
    1312 O            1.9924    84.9258     8.1044 O             1 RES     
    1313 O           30.4552    68.4928     0.0000 O             1 RES     
    1314 O           30.4552    68.4928     8.1044 O             1 RES     
    1315 O           20.9676    84.9258     0.0000 O             1 RES     
    1316 O           20.9676    84.9258     8.1044 O             1 RES     
    1317 O           10.8443    74.2936     0.0000 O             1 RES     
    1318 O           10.8443    74.2936     8.1044 O             1 RES     
    1319 O            1.3567    90.7266     0.0000 O             1 RES     
    1320 O            1.3567    90.7266     8.1044 O             1 RES     
    1321 O           29.8195    74.2936     0.0000 O             1 RES     
    1322 O           29.8195    74.2936     8.1044 O             1 RES     
    1323 O           20.3319    90.7266     0.0000 O             1 RES     
    1324 O           20.3319    90.7266     8.1044 O             1 RES     
    1325 O            6.1385    70.8427     0.0000 O             1 RES     
    1326 O            6.1385    70.8427     8.1044 O             1 RES     
    1327 O           25.1137    70.8427     0.0000 O             1 RES     
    1328 O           25.1137    70.8427     8.1044 O             1 RES     
    1329 O           15.6261    87.2757     0.0000 O             1 RES     
    1330 O           15.6261    87.2757     8.1044 O             1 RES     
    1331 O           34.6013    87.2757     0.0000 O             1 RES     
    1332 O           34.6013    87.2757     8.1044 O             1 RES     
    1333 O            9.0607    68.9365     1.6047 O             1 RES     
    1334 O           28.0359    68.9365     1.6047 O             1 RES     
    1335 O           18.5483    85.3695     1.6047 O             1 RES     
    1336 O           37.5235    85.3695     1.6047 O             1 RES     
    1337 O           11.6697    71.9766     1.6047 O             1 RES     
    1338 O            2.1821    88.4096     1.6047 O             1 RES     
    1339 O           30.6449    71.9766     1.6047 O             1 RES     
    1340 O           21.1573    88.4096     1.6047 O             1 RES     
    1341 O            7.7324    72.7160     1.6047 O             1 RES     
    1342 O           26.7076    72.7160     1.6047 O             1 RES     
    1343 O           17.2200    89.1491     1.6047 O             1 RES     
    1344 O           36.1952    89.1491     1.6047 O             1 RES     
    1345 O            0.4269    78.9606     5.6569 O             1 RES     
    1346 O           19.4021    78.9606     5.6569 O             1 RES     
    1347 O            9.9145    95.3936     5.6569 O             1 RES     
    1348 O           28.8897    95.3936     5.6569 O             1 RES     
    1349 O           16.7931    75.9205     5.6569 O             1 RES     
    1350 O            7.3055    92.3535     5.6569 O             1 RES     
    1351 O           35.7683    75.9205     5.6569 O             1 RES     
    1352 O           26.2807    92.3535     5.6569 O             1 RES     
    1353 O            1.7552    75.1810     5.6569 O             1 RES     
    1354 O           20.7304    75.1810     5.6569 O             1 RES     
    1355 O           11.2428    91.6140     5.6569 O             1 RES     
    1356 O           30.2180    91.6140     5.6569 O             1 RES     
    1357 O           11.7836    69.6102     2.5529 O             1 RES     
    1358 O            2.2960    86.0432     2.5529 O             1 RES     
    1359 O           30.7588    69.6102     2.5529 O             1 RES     
    1360 O           21.2712    86.0432     2.5529 O             1 RES     
    1361 O            9.7248    73.9978     2.5529 O             1 RES     
    1362 O            0.2372    90.4308     2.5529 O             1 RES     
    1363 O           28.7000    73.9978     2.5529 O             1 RES     
    1364 O           19.2124    90.4308     2.5529 O             1 RES     
    1365 O            6.9544    70.0210     2.5529 O             1 RES     
    1366 O           25.9296    70.0210     2.5529 O             1 RES     
    1367 O           16.4420    86.4540     2.5529 O             1 RES     
    1368 O           35.4172    86.4540     2.5529 O             1 RES     
    1369 O           16.6792    78.2868     6.6051 O             1 RES     
    1370 O            7.1916    94.7198     6.6051 O             1 RES     
    1371 O           35.6544    78.2868     6.6051 O             1 RES     
    1372 O           26.1668    94.7198     6.6051 O             1 RES     
    1373 O           18.7380    73.8992     6.6051 O             1 RES     
    1374 O            9.2504    90.3322     6.6051 O             1 RES     
    1375 O           37.7132    73.8992     6.6051 O             1 RES     
    1376 O           28.2256    90.3322     6.6051 O             1 RES     
    1377 O            2.5332    77.8760     6.6051 O             1 RES     
    1378 O           21.5084    77.8760     6.6051 O             1 RES     
    1379 O           12.0208    94.3090     6.6051 O             1 RES     
    1380 O           30.9960    94.3090     6.6051 O             1 RES     
    1381 O            1.1670    79.2893    -0.1216 O             1 RES     
    1382 O           20.1422    79.2893    -0.1216 O             1 RES     
    1383 O           10.6546    95.7223    -0.1216 O             1 RES     
    1384 O           29.6298    95.7223    -0.1216 O             1 RES     
    1385 O           16.1384    76.3970    -0.1216 O             1 RES     
    1386 O            6.6508    92.8300    -0.1216 O             1 RES     
    1387 O           35.1136    76.3970    -0.1216 O             1 RES     
    1388 O           25.6260    92.8300    -0.1216 O             1 RES     
    1389 O            1.6698    74.3758    -0.1216 O             1 RES     
    1390 O           20.6450    74.3758    -0.1216 O             1 RES     
    1391 O           11.1574    90.8088    -0.1216 O             1 RES     
    1392 O           30.1326    90.8088    -0.1216 O             1 RES     
    1393 O            8.0929    65.8799     8.4043 O             1 RES     
    1394 O           27.0681    65.8799     8.4043 O             1 RES     
    1395 O           17.5805    82.3129     8.4043 O             1 RES     
    1396 O           36.5557    82.3129     8.4043 O             1 RES     
    1397 O           14.8007    72.6667     8.4043 O             1 RES     
    1398 O            5.3131    89.0998     8.4043 O             1 RES     
    1399 O           33.7759    72.6667     8.4043 O             1 RES     
    1400 O           24.2883    89.0998     8.4043 O             1 RES     
    1401 O            5.5692    75.0824     8.4043 O             1 RES     
    1402 O           24.5444    75.0824     8.4043 O             1 RES     
    1403 O           15.0568    91.5154     8.4043 O             1 RES     
    1404 O           34.0320    91.5154     8.4043 O             1 RES     
    1405 Al          54.7529    16.4166     1.9370 Al            1 RES     
    1406 Al          45.2653    32.8496     1.9370 Al            1 RES     
    1407 Al          73.7281    16.4166     1.9370 Al            1 RES     
    1408 Al          64.2405    32.8496     1.9370 Al            1 RES     
    1409 Al          53.2824     6.3431     1.9370 Al            1 RES     
    1410 Al          43.7948    22.7761     1.9370 Al            1 RES     
    1411 Al          72.2576     6.3431     1.9370 Al            1 RES     
    1412 Al          62.7700    22.7761     1.9370 Al            1 RES     
    1413 Al          43.7663    10.1063     1.9370 Al            1 RES     
    1414 Al          62.7415    10.1063     1.9370 Al            1 RES     
    1415 Al          53.2539    26.5393     1.9370 Al            1 RES     
    1416 Al          72.2291    26.5393     1.9370 Al            1 RES     
    1417 Al          49.6107     0.0164     5.9892 Al            1 RES     
    1418 Al          40.1231    16.4494     5.9892 Al            1 RES     
    1419 Al          68.5859     0.0164     5.9892 Al            1 RES     
    1420 Al          59.0983    16.4494     5.9892 Al            1 RES     
    1421 Al          51.0812    10.0899     5.9892 Al            1 RES     
    1422 Al          41.5936    26.5229     5.9892 Al            1 RES     
    1423 Al          70.0564    10.0899     5.9892 Al            1 RES     
    1424 Al          60.5688    26.5229     5.9892 Al            1 RES     
    1425 Al          41.6221     6.3267     5.9892 Al            1 RES     
    1426 Al          60.5973     6.3267     5.9892 Al            1 RES     
    1427 Al          51.1097    22.7597     5.9892 Al            1 RES     
    1428 Al          70.0849    22.7597     5.9892 Al            1 RES     
    1429 Al          39.0984    13.5901     1.6533 Al            1 RES     
    1430 Al          58.0736    13.5901     1.6533 Al            1 RES     
    1431 Al          48.5860    30.0231     1.6533 Al            1 RES     
    1432 Al          67.5612    30.0231     1.6533 Al            1 RES     
    1433 Al          54.0698    10.6322     1.6533 Al            1 RES     
    1434 Al          44.5822    27.0652     1.6533 Al            1 RES     
    1435 Al          73.0450    10.6322     1.6533 Al            1 RES     
    1436 Al          63.5574    27.0652     1.6533 Al            1 RES     
    1437 Al          39.6582     8.6438     1.6533 Al            1 RES     
    1438 Al          58.6334     8.6438     1.6533 Al            1 RES     
    1439 Al          49.1458    25.0768     1.6533 Al            1 RES     
    1440 Al          68.1210    25.0768     1.6533 Al            1 RES     
    1441 Al          46.2900     2.8429     5.7055 Al            1 RES     
    1442 Al          65.2652     2.8429     5.7055 Al            1 RES     
    1443 Al          55.7776    19.2759     5.7055 Al            1 RES     
    1444 Al          74.7528    19.2759     5.7055 Al            1 RES     
    1445 Al          50.2938     5.8009     5.7055 Al            1 RES     
    1446 Al          40.8062    22.2339     5.7055 Al            1 RES     
    1447 Al          69.2690     5.8009     5.7055 Al            1 RES     
    1448 Al          59.7814    22.2339     5.7055 Al            1 RES     
    1449 Al          45.7302     7.7892     5.7055 Al            1 RES     
    1450 Al          64.7054     7.7892     5.7055 Al            1 RES     
    1451 Al          55.2178    24.2223     5.7055 Al            1 RES     
    1452 Al          74.1930    24.2223     5.7055 Al            1 RES     
    1453 Al          48.7568     2.7772     1.6047 Al            1 RES     
    1454 Al          39.2692    19.2102     1.6047 Al            1 RES     
    1455 Al          67.7320     2.7772     1.6047 Al            1 RES     
    1456 Al          58.2444    19.2102     1.6047 Al            1 RES     
    1457 Al          49.1173     7.9700     1.6047 Al            1 RES     
    1458 Al          39.6297    24.4030     1.6047 Al            1 RES     
    1459 Al          68.0925     7.9700     1.6047 Al            1 RES     
    1460 Al          58.6049    24.4030     1.6047 Al            1 RES     
    1461 Al          44.4399     5.6858     1.6047 Al            1 RES     
    1462 Al          63.4151     5.6858     1.6047 Al            1 RES     
    1463 Al          53.9275    22.1188     1.6047 Al            1 RES     
    1464 Al          72.9027    22.1188     1.6047 Al            1 RES     
    1465 Al          55.6068    13.6558     5.6569 Al            1 RES     
    1466 Al          46.1192    30.0888     5.6569 Al            1 RES     
    1467 Al          74.5820    13.6558     5.6569 Al            1 RES     
    1468 Al          65.0944    30.0888     5.6569 Al            1 RES     
    1469 Al          55.2463     8.4630     5.6569 Al            1 RES     
    1470 Al          45.7587    24.8960     5.6569 Al            1 RES     
    1471 Al          74.2215     8.4630     5.6569 Al            1 RES     
    1472 Al          64.7339    24.8960     5.6569 Al            1 RES     
    1473 Al          40.9485    10.7472     5.6569 Al            1 RES     
    1474 Al          59.9237    10.7472     5.6569 Al            1 RES     
    1475 Al          50.4361    27.1802     5.6569 Al            1 RES     
    1476 Al          69.4113    27.1802     5.6569 Al            1 RES     
    1477 P           38.9086    16.4166     2.9014 P             1 RES     
    1478 P           57.8838    16.4166     2.9014 P             1 RES     
    1479 P           48.3962    32.8496     2.9014 P             1 RES     
    1480 P           67.3714    32.8496     2.9014 P             1 RES     
    1481 P           51.7169     9.0546     2.9014 P             1 RES     
    1482 P           42.2293    25.4876     2.9014 P             1 RES     
    1483 P           70.6921     9.0546     2.9014 P             1 RES     
    1484 P           61.2045    25.4876     2.9014 P             1 RES     
    1485 P           42.2008     7.3949     2.9014 P             1 RES     
    1486 P           61.1760     7.3949     2.9014 P             1 RES     
    1487 P           51.6884    23.8279     2.9014 P             1 RES     
    1488 P           70.6636    23.8279     2.9014 P             1 RES     
    1489 P           46.4798     0.0164     6.9536 P             1 RES     
    1490 P           65.4550     0.0164     6.9536 P             1 RES     
    1491 P           55.9674    16.4494     6.9536 P             1 RES     
    1492 P           74.9426    16.4494     6.9536 P             1 RES     
    1493 P           52.6467     7.3784     6.9536 P             1 RES     
    1494 P           43.1591    23.8114     6.9536 P             1 RES     
    1495 P           71.6219     7.3784     6.9536 P             1 RES     
    1496 P           62.1343    23.8114     6.9536 P             1 RES     
    1497 P           43.1876     9.0382     6.9536 P             1 RES     
    1498 P           62.1628     9.0382     6.9536 P             1 RES     
    1499 P           52.6752    25.4712     6.9536 P             1 RES     
    1500 P           71.6504    25.4712     6.9536 P             1 RES     
    1501 P           55.0945    13.3929     2.5934 P             1 RES     
    1502 P           45.6069    29.8259     2.5934 P             1 RES     
    1503 P           74.0697    13.3929     2.5934 P             1 RES     
    1504 P           64.5821    29.8259     2.5934 P             1 RES     
    1505 P           55.7302     8.1508     2.5934 P             1 RES     
    1506 P           46.2426    24.5838     2.5934 P             1 RES     
    1507 P           74.7054     8.1508     2.5934 P             1 RES     
    1508 P           65.2178    24.5838     2.5934 P             1 RES     
    1509 P           40.9769    11.3223     2.5934 P             1 RES     
    1510 P           59.9521    11.3223     2.5934 P             1 RES     
    1511 P           50.4645    27.7553     2.5934 P             1 RES     
    1512 P           69.4397    27.7553     2.5934 P             1 RES     
    1513 P           49.2691     3.0401     6.6456 P             1 RES     
    1514 P           39.7815    19.4731     6.6456 P             1 RES     
    1515 P           68.2443     3.0401     6.6456 P             1 RES     
    1516 P           58.7567    19.4731     6.6456 P             1 RES     
    1517 P           48.6334     8.2822     6.6456 P             1 RES     
    1518 P           39.1458    24.7152     6.6456 P             1 RES     
    1519 P           67.6086     8.2822     6.6456 P             1 RES     
    1520 P           58.1210    24.7152     6.6456 P             1 RES     
    1521 P           44.4115     5.1107     6.6456 P             1 RES     
    1522 P           63.3867     5.1107     6.6456 P             1 RES     
    1523 P           53.8991    21.5437     6.6456 P             1 RES     
    1524 P           72.8743    21.5437     6.6456 P             1 RES     
    1525 P           45.8156     3.0401     2.5043 P             1 RES     
    1526 P           64.7908     3.0401     2.5043 P             1 RES     
    1527 P           55.3032    19.4731     2.5043 P             1 RES     
    1528 P           74.2784    19.4731     2.5043 P             1 RES     
    1529 P           50.3602     5.2914     2.5043 P             1 RES     
    1530 P           40.8726    21.7244     2.5043 P             1 RES     
    1531 P           69.3354     5.2914     2.5043 P             1 RES     
    1532 P           59.8478    21.7244     2.5043 P             1 RES     
    1533 P           46.1382     8.1015     2.5043 P             1 RES     
    1534 P           65.1134     8.1015     2.5043 P             1 RES     
    1535 P           55.6258    24.5345     2.5043 P             1 RES     
    1536 P           74.6010    24.5345     2.5043 P             1 RES     
    1537 P           39.5728    13.3929     6.5565 P             1 RES     
    1538 P           58.5480    13.3929     6.5565 P             1 RES     
    1539 P           49.0604    29.8259     6.5565 P             1 RES     
    1540 P           68.0356    29.8259     6.5565 P             1 RES     
    1541 P           54.0034    11.1416     6.5565 P             1 RES     
    1542 P           44.5158    27.5746     6.5565 P             1 RES     
    1543 P           72.9786    11.1416     6.5565 P             1 RES     
    1544 P           63.4910    27.5746     6.5565 P             1 RES     
    1545 P           39.2502     8.3315     6.5565 P             1 RES     
    1546 P           58.2254     8.3315     6.5565 P             1 RES     
    1547 P           48.7378    24.7645     6.5565 P             1 RES     
    1548 P           67.7130    24.7645     6.5565 P             1 RES     
    1549 O           46.8593     0.0164     2.7474 O             1 RES     
    1550 O           65.8345     0.0164     2.7474 O             1 RES     
    1551 O           56.3469    16.4494     2.7474 O             1 RES     
    1552 O           75.3221    16.4494     2.7474 O             1 RES     
    1553 O           52.4569     7.7071     2.7474 O             1 RES     
    1554 O           42.9693    24.1401     2.7474 O             1 RES     
    1555 O           71.4321     7.7071     2.7474 O             1 RES     
    1556 O           61.9445    24.1401     2.7474 O             1 RES     
    1557 O           42.9978     8.7095     2.7474 O             1 RES     
    1558 O           61.9730     8.7095     2.7474 O             1 RES     
    1559 O           52.4854    25.1425     2.7474 O             1 RES     
    1560 O           71.4606    25.1425     2.7474 O             1 RES     
    1561 O           38.5291    16.4166     6.7996 O             1 RES     
    1562 O           57.5043    16.4166     6.7996 O             1 RES     
    1563 O           48.0167    32.8496     6.7996 O             1 RES     
    1564 O           66.9919    32.8496     6.7996 O             1 RES     
    1565 O           51.9067     8.7259     6.7996 O             1 RES     
    1566 O           42.4191    25.1589     6.7996 O             1 RES     
    1567 O           70.8819     8.7259     6.7996 O             1 RES     
    1568 O           61.3943    25.1589     6.7996 O             1 RES     
    1569 O           42.3906     7.7235     6.7996 O             1 RES     
    1570 O           61.3658     7.7235     6.7996 O             1 RES     
    1571 O           51.8782    24.1565     6.7996 O             1 RES     
    1572 O           70.8534    24.1565     6.7996 O             1 RES     
    1573 O           46.0433     0.1479     0.2999 O             1 RES     
    1574 O           65.0185     0.1479     0.2999 O             1 RES     
    1575 O           55.5309    16.5809     0.2999 O             1 RES     
    1576 O           74.5061    16.5809     0.2999 O             1 RES     
    1577 O           52.7511     6.9347     0.2999 O             1 RES     
    1578 O           43.2635    23.3677     0.2999 O             1 RES     
    1579 O           71.7263     6.9347     0.2999 O             1 RES     
    1580 O           62.2387    23.3677     0.2999 O             1 RES     
    1581 O           43.5196     9.3504     0.2999 O             1 RES     
    1582 O           62.4948     9.3504     0.2999 O             1 RES     
    1583 O           53.0072    25.7834     0.2999 O             1 RES     
    1584 O           71.9824    25.7834     0.2999 O             1 RES     
    1585 O           39.3451    16.2851     4.3521 O             1 RES     
    1586 O           58.3203    16.2851     4.3521 O             1 RES     
    1587 O           48.8327    32.7181     4.3521 O             1 RES     
    1588 O           67.8079    32.7181     4.3521 O             1 RES     
    1589 O           51.6125     9.4983     4.3521 O             1 RES     
    1590 O           42.1249    25.9313     4.3521 O             1 RES     
    1591 O           70.5877     9.4983     4.3521 O             1 RES     
    1592 O           61.1001    25.9313     4.3521 O             1 RES     
    1593 O           41.8688     7.0826     4.3521 O             1 RES     
    1594 O           60.8440     7.0826     4.3521 O             1 RES     
    1595 O           51.3564    23.5156     4.3521 O             1 RES     
    1596 O           70.3316    23.5156     4.3521 O             1 RES     
    1597 O           54.6106    14.5925     1.8073 O             1 RES     
    1598 O           45.1230    31.0255     1.8073 O             1 RES     
    1599 O           73.5858    14.5925     1.8073 O             1 RES     
    1600 O           64.0982    31.0255     1.8073 O             1 RES     
    1601 O           54.9332     7.1319     1.8073 O             1 RES     
    1602 O           45.4456    23.5649     1.8073 O             1 RES     
    1603 O           73.9084     7.1319     1.8073 O             1 RES     
    1604 O           64.4208    23.5649     1.8073 O             1 RES     
    1605 O           42.2578    11.1416     1.8073 O             1 RES     
    1606 O           61.2330    11.1416     1.8073 O             1 RES     
    1607 O           51.7454    27.5746     1.8073 O             1 RES     
    1608 O           70.7206    27.5746     1.8073 O             1 RES     
    1609 O           49.7530     1.8405     5.8595 O             1 RES     
    1610 O           40.2654    18.2735     5.8595 O             1 RES     
    1611 O           68.7282     1.8405     5.8595 O             1 RES     
    1612 O           59.2406    18.2735     5.8595 O             1 RES     
    1613 O           49.4304     9.3011     5.8595 O             1 RES     
    1614 O           39.9428    25.7341     5.8595 O             1 RES     
    1615 O           68.4056     9.3011     5.8595 O             1 RES     
    1616 O           58.9180    25.7341     5.8595 O             1 RES     
    1617 O           43.1306     5.2914     5.8595 O             1 RES     
    1618 O           62.1058     5.2914     5.8595 O             1 RES     
    1619 O           52.6182    21.7244     5.8595 O             1 RES     
    1620 O           71.5934    21.7244     5.8595 O             1 RES     
    1621 O           45.0566     1.8241     2.0666 O             1 RES     
    1622 O           64.0318     1.8241     2.0666 O             1 RES     
    1623 O           54.5442    18.2571     2.0666 O             1 RES     
    1624 O           73.5194    18.2571     2.0666 O             1 RES     
    1625 O           51.7928     5.2421     2.0666 O             1 RES     
    1626 O           42.3052    21.6751     2.0666 O             1 RES     
    1627 O           70.7680     5.2421     2.0666 O             1 RES     
    1628 O           61.2804    21.6751     2.0666 O             1 RES     
    1629 O           45.4646     9.3668     2.0666 O             1 RES     
    1630 O           64.4398     9.3668     2.0666 O             1 RES     
    1631 O           54.9522    25.7998     2.0666 O             1 RES     
    1632 O           73.9274    25.7998     2.0666 O             1 RES     
    1633 O           40.3318    14.6089     6.1188 O             1 RES     
    1634 O           59.3070    14.6089     6.1188 O             1 RES     
    1635 O           49.8194    31.0420     6.1188 O             1 RES     
    1636 O           68.7946    31.0420     6.1188 O             1 RES     
    1637 O           52.5708    11.1909     6.1188 O             1 RES     
    1638 O           43.0832    27.6239     6.1188 O             1 RES     
    1639 O           71.5460    11.1909     6.1188 O             1 RES     
    1640 O           62.0584    27.6239     6.1188 O             1 RES     
    1641 O           39.9238     7.0662     6.1188 O             1 RES     
    1642 O           58.8990     7.0662     6.1188 O             1 RES     
    1643 O           49.4114    23.4992     6.1188 O             1 RES     
    1644 O           68.3866    23.4992     6.1188 O             1 RES     
    1645 O           39.4115    15.2170     2.1396 O             1 RES     
    1646 O           58.3867    15.2170     2.1396 O             1 RES     
    1647 O           48.8991    31.6500     2.1396 O             1 RES     
    1648 O           67.8743    31.6500     2.1396 O             1 RES     
    1649 O           52.5044    10.0899     2.1396 O             1 RES     
    1650 O           43.0168    26.5229     2.1396 O             1 RES     
    1651 O           71.4796    10.0899     2.1396 O             1 RES     
    1652 O           61.9920    26.5229     2.1396 O             1 RES     
    1653 O           40.9105     7.5592     2.1396 O             1 RES     
    1654 O           59.8857     7.5592     2.1396 O             1 RES     
    1655 O           50.3981    23.9922     2.1396 O             1 RES     
    1656 O           69.3733    23.9922     2.1396 O             1 RES     
    1657 O           45.9769     1.2160     6.1918 O             1 RES     
    1658 O           64.9521     1.2160     6.1918 O             1 RES     
    1659 O           55.4645    17.6490     6.1918 O             1 RES     
    1660 O           74.4397    17.6490     6.1918 O             1 RES     
    1661 O           51.8592     6.3431     6.1918 O             1 RES     
    1662 O           42.3716    22.7761     6.1918 O             1 RES     
    1663 O           70.8344     6.3431     6.1918 O             1 RES     
    1664 O           61.3468    22.7761     6.1918 O             1 RES     
    1665 O           44.4779     8.8738     6.1918 O             1 RES     
    1666 O           63.4531     8.8738     6.1918 O             1 RES     
    1667 O           53.9655    25.3068     6.1918 O             1 RES     
    1668 O           72.9407    25.3068     6.1918 O             1 RES     
    1669 O           49.0129     1.1832     2.2530 O             1 RES     
    1670 O           39.5253    17.6162     2.2530 O             1 RES     
    1671 O           67.9881     1.1832     2.2530 O             1 RES     
    1672 O           58.5005    17.6162     2.2530 O             1 RES     
    1673 O           50.3697     8.9889     2.2530 O             1 RES     
    1674 O           40.8821    25.4219     2.2530 O             1 RES     
    1675 O           69.3449     8.9889     2.2530 O             1 RES     
    1676 O           59.8573    25.4219     2.2530 O             1 RES     
    1677 O           42.9314     6.2610     2.2530 O             1 RES     
    1678 O           61.9066     6.2610     2.2530 O             1 RES     
    1679 O           52.4190    22.6940     2.2530 O             1 RES     
    1680 O           71.3942    22.6940     2.2530 O             1 RES     
    1681 O           55.3507    15.2498     6.3052 O             1 RES     
    1682 O           45.8631    31.6828     6.3052 O             1 RES     
    1683 O           74.3259    15.2498     6.3052 O             1 RES     
    1684 O           64.8383    31.6828     6.3052 O             1 RES     
    1685 O           53.9939     7.4442     6.3052 O             1 RES     
    1686 O           44.5063    23.8772     6.3052 O             1 RES     
    1687 O           72.9691     7.4442     6.3052 O             1 RES     
    1688 O           63.4815    23.8772     6.3052 O             1 RES     
    1689 O           42.4570    10.1720     6.3052 O             1 RES     
    1690 O           61.4322    10.1720     6.3052 O             1 RES     
    1691 O           51.9446    26.6050     6.3052 O             1 RES     
    1692 O           70.9198    26.6050     6.3052 O             1 RES     
    1693 O           40.3697    12.6370     2.2692 O             1 RES     
    1694 O           59.3449    12.6370     2.2692 O             1 RES     
    1695 O           49.8573    29.0700     2.2692 O             1 RES     
    1696 O           68.8325    29.0700     2.2692 O             1 RES     
    1697 O           54.2596    12.2097     2.2692 O             1 RES     
    1698 O           44.7720    28.6427     2.2692 O             1 RES     
    1699 O           73.2348    12.2097     2.2692 O             1 RES     
    1700 O           63.7472    28.6427     2.2692 O             1 RES     
    1701 O           38.1971     8.0193     2.2692 O             1 RES     
    1702 O           57.1723     8.0193     2.2692 O             1 RES     
    1703 O           47.6847    24.4523     2.2692 O             1 RES     
    1704 O           66.6599    24.4523     2.2692 O             1 RES     
    1705 O           45.0187     3.7960     6.3214 O             1 RES     
    1706 O           63.9939     3.7960     6.3214 O             1 RES     
    1707 O           54.5063    20.2290     6.3214 O             1 RES     
    1708 O           73.4815    20.2290     6.3214 O             1 RES     
    1709 O           50.1040     4.2233     6.3214 O             1 RES     
    1710 O           40.6164    20.6563     6.3214 O             1 RES     
    1711 O           69.0792     4.2233     6.3214 O             1 RES     
    1712 O           59.5916    20.6563     6.3214 O             1 RES     
    1713 O           47.1913     8.4137     6.3214 O             1 RES     
    1714 O           66.1665     8.4137     6.3214 O             1 RES     
    1715 O           56.6789    24.8467     6.3214 O             1 RES     
    1716 O           75.6541    24.8467     6.3214 O             1 RES     
    1717 O           56.5651    13.0478     2.2692 O             1 RES     
    1718 O           47.0775    29.4808     2.2692 O             1 RES     
    1719 O           75.5403    13.0478     2.2692 O             1 RES     
    1720 O           66.0527    29.4808     2.2692 O             1 RES     
    1721 O           55.2937     9.5969     2.2692 O             1 RES     
    1722 O           45.8061    26.0299     2.2692 O             1 RES     
    1723 O           74.2689     9.5969     2.2692 O             1 RES     
    1724 O           64.7813    26.0299     2.2692 O             1 RES     
    1725 O           39.9428    10.2213     2.2692 O             1 RES     
    1726 O           58.9180    10.2213     2.2692 O             1 RES     
    1727 O           49.4304    26.6543     2.2692 O             1 RES     
    1728 O           68.4056    26.6543     2.2692 O             1 RES     
    1729 O           47.7985     3.3852     6.3214 O             1 RES     
    1730 O           38.3109    19.8182     6.3214 O             1 RES     
    1731 O           66.7737     3.3852     6.3214 O             1 RES     
    1732 O           57.2861    19.8182     6.3214 O             1 RES     
    1733 O           49.0699     6.8361     6.3214 O             1 RES     
    1734 O           39.5823    23.2691     6.3214 O             1 RES     
    1735 O           68.0451     6.8361     6.3214 O             1 RES     
    1736 O           58.5575    23.2691     6.3214 O             1 RES     
    1737 O           45.4456     6.2117     6.3214 O             1 RES     
    1738 O           64.4208     6.2117     6.3214 O             1 RES     
    1739 O           54.9332    22.6447     6.3214 O             1 RES     
    1740 O           73.9084    22.6447     6.3214 O             1 RES     
    1741 O           39.1174    13.5572     7.9828 O             1 RES     
    1742 O           58.0926    13.5572     7.9828 O             1 RES     
    1743 O           48.6050    29.9902     7.9828 O             1 RES     
    1744 O           67.5802    29.9902     7.9828 O             1 RES     
    1745 O           54.0888    10.6650     7.9828 O             1 RES     
    1746 O           44.6012    27.0980     7.9828 O             1 RES     
    1747 O           73.0640    10.6650     7.9828 O             1 RES     
    1748 O           63.5764    27.0980     7.9828 O             1 RES     
    1749 O           39.6202     8.6438     7.9828 O             1 RES     
    1750 O           58.5954     8.6438     7.9828 O             1 RES     
    1751 O           49.1078    25.0768     7.9828 O             1 RES     
    1752 O           68.0830    25.0768     7.9828 O             1 RES     
    1753 O           46.2710     2.8758     3.9306 O             1 RES     
    1754 O           65.2462     2.8758     3.9306 O             1 RES     
    1755 O           55.7586    19.3088     3.9306 O             1 RES     
    1756 O           74.7338    19.3088     3.9306 O             1 RES     
    1757 O           50.2748     5.7680     3.9306 O             1 RES     
    1758 O           40.7872    22.2010     3.9306 O             1 RES     
    1759 O           69.2500     5.7680     3.9306 O             1 RES     
    1760 O           59.7624    22.2010     3.9306 O             1 RES     
    1761 O           45.7682     7.7892     3.9306 O             1 RES     
    1762 O           64.7434     7.7892     3.9306 O             1 RES     
    1763 O           55.2558    24.2223     3.9306 O             1 RES     
    1764 O           74.2310    24.2223     3.9306 O             1 RES     
    1765 O           54.9332    13.6723     4.0522 O             1 RES     
    1766 O           45.4456    30.1053     4.0522 O             1 RES     
    1767 O           73.9084    13.6723     4.0522 O             1 RES     
    1768 O           64.4208    30.1053     4.0522 O             1 RES     
    1769 O           55.5689     7.8714     4.0522 O             1 RES     
    1770 O           46.0813    24.3044     4.0522 O             1 RES     
    1771 O           74.5441     7.8714     4.0522 O             1 RES     
    1772 O           65.0565    24.3044     4.0522 O             1 RES     
    1773 O           41.2995    11.3223     4.0522 O             1 RES     
    1774 O           60.2747    11.3223     4.0522 O             1 RES     
    1775 O           50.7871    27.7553     4.0522 O             1 RES     
    1776 O           69.7623    27.7553     4.0522 O             1 RES     
    1777 O           49.4304     2.7607     0.0000 O             1 RES     
    1778 O           49.4304     2.7607     8.1044 O             1 RES     
    1779 O           39.9428    19.1938     0.0000 O             1 RES     
    1780 O           39.9428    19.1938     8.1044 O             1 RES     
    1781 O           68.4056     2.7607     0.0000 O             1 RES     
    1782 O           68.4056     2.7607     8.1044 O             1 RES     
    1783 O           58.9180    19.1938     0.0000 O             1 RES     
    1784 O           58.9180    19.1938     8.1044 O             1 RES     
    1785 O           48.7947     8.5616     0.0000 O             1 RES     
    1786 O           48.7947     8.5616     8.1044 O             1 RES     
    1787 O           39.3071    24.9946     0.0000 O             1 RES     
    1788 O           39.3071    24.9946     8.1044 O             1 RES     
    1789 O           67.7699     8.5616     0.0000 O             1 RES     
    1790 O           67.7699     8.5616     8.1044 O             1 RES     
    1791 O           58.2823    24.9946     0.0000 O             1 RES     
    1792 O           58.2823    24.9946     8.1044 O             1 RES     
    1793 O           44.0889     5.1107     0.0000 O             1 RES     
    1794 O           44.0889     5.1107     8.1044 O             1 RES     
    1795 O           63.0641     5.1107     0.0000 O             1 RES     
    1796 O           63.0641     5.1107     8.1044 O             1 RES     
    1797 O           53.5765    21.5437     0.0000 O             1 RES     
    1798 O           53.5765    21.5437     8.1044 O             1 RES     
    1799 O           72.5517    21.5437     0.0000 O             1 RES     
    1800 O           72.5517    21.5437     8.1044 O             1 RES     
    1801 O           47.0111     3.2044     1.6047 O             1 RES     
    1802 O           65.9863     3.2044     1.6047 O             1 RES     
    1803 O           56.4987    19.6374     1.6047 O             1 RES     
    1804 O           75.4739    19.6374     1.6047 O             1 RES     
    1805 O           49.6201     6.2445     1.6047 O             1 RES     
    1806 O           40.1325    22.6775     1.6047 O             1 RES     
    1807 O           68.5953     6.2445     1.6047 O             1 RES     
    1808 O           59.1077    22.6775     1.6047 O             1 RES     
    1809 O           45.6828     6.9840     1.6047 O             1 RES     
    1810 O           64.6580     6.9840     1.6047 O             1 RES     
    1811 O           55.1704    23.4170     1.6047 O             1 RES     
    1812 O           74.1456    23.4170     1.6047 O             1 RES     
    1813 O           38.3773    13.2286     5.6569 O             1 RES     
    1814 O           57.3525    13.2286     5.6569 O             1 RES     
    1815 O           47.8649    29.6616     5.6569 O             1 RES     
    1816 O           66.8401    29.6616     5.6569 O             1 RES     
    1817 O           54.7435    10.1885     5.6569 O             1 RES     
    1818 O           45.2559    26.6215     5.6569 O             1 RES     
    1819 O           73.7187    10.1885     5.6569 O             1 RES     
    1820 O           64.2311    26.6215     5.6569 O             1 RES     
    1821 O           39.7056     9.4490     5.6569 O             1 RES     
    1822 O           58.6808     9.4490     5.6569 O             1 RES     
    1823 O           49.1932    25.8820     5.6569 O             1 RES     
    1824 O           68.1684    25.8820     5.6569 O             1 RES     
    1825 O           49.7340     3.8782     2.5529 O             1 RES     
    1826 O           40.2464    20.3112     2.5529 O             1 RES     
    1827 O           68.7092     3.8782     2.5529 O             1 RES     
    1828 O           59.2216    20.3112     2.5529 O             1 RES     
    1829 O           47.6752     8.2658     2.5529 O             1 RES     
    1830 O           38.1876    24.6988     2.5529 O             1 RES     
    1831 O           66.6504     8.2658     2.5529 O             1 RES     
    1832 O           57.1628    24.6988     2.5529 O             1 RES     
    1833 O           44.9048     4.2890     2.5529 O             1 RES     
    1834 O           63.8800     4.2890     2.5529 O             1 RES     
    1835 O           54.3924    20.7220     2.5529 O             1 RES     
    1836 O           73.3676    20.7220     2.5529 O             1 RES     
    1837 O           54.6296    12.5548     6.6051 O             1 RES     
    1838 O           45.1420    28.9878     6.6051 O             1 RES     
    1839 O           73.6048    12.5548     6.6051 O             1 RES     
    1840 O           64.1172    28.9878     6.6051 O             1 RES     
    1841 O           56.6884     8.1672     6.6051 O             1 RES     
    1842 O           47.2008    24.6002     6.6051 O             1 RES     
    1843 O           75.6636     8.1672     6.6051 O             1 RES     
    1844 O           66.1760    24.6002     6.6051 O             1 RES     
    1845 O           40.4836    12.1440     6.6051 O             1 RES     
    1846 O           59.4588    12.1440     6.6051 O             1 RES     
    1847 O           49.9712    28.5770     6.6051 O             1 RES     
    1848 O           68.9464    28.5770     6.6051 O             1 RES     
    1849 O           39.1174    13.5572    -0.1216 O             1 RES     
    1850 O           58.0926    13.5572    -0.1216 O             1 RES     
    1851 O           48.6050    29.9902    -0.1216 O             1 RES     
    1852 O           67.5802    29.9902    -0.1216 O             1 RES     
    1853 O           54.0888    10.6650    -0.1216 O             1 RES     
    1854 O           44.6012    27.0980    -0.1216 O             1 RES     
    1855 O           73.0640    10.6650    -0.1216 O             1 RES     
    1856 O           63.5764    27.0980    -0.1216 O             1 RES     
    1857 O           39.6202     8.6438    -0.1216 O             1 RES     
    1858 O           58.5954     8.6438    -0.1216 O             1 RES     
    1859 O           49.1078    25.0768    -0.1216 O             1 RES     
    1860 O           68.0830    25.0768    -0.1216 O             1 RES     
    1861 O           46.0433     0.1479     8.4043 O             1 RES     
    1862 O           65.0185     0.1479     8.4043 O             1 RES     
    1863 O           55.5309    16.5809     8.4043 O             1 RES     
    1864 O           74.5061    16.5809     8.4043 O             1 RES     
    1865 O           52.7511     6.9347     8.4043 O             1 RES     
    1866 O           43.2635    23.3677     8.4043 O             1 RES     
    1867 O           71.7263     6.9347     8.4043 O             1 RES     
    1868 O           62.2387    23.3677     8.4043 O             1 RES     
    1869 O           43.5196     9.3504     8.4043 O             1 RES     
    1870 O           62.4948     9.3504     8.4043 O             1 RES     
    1871 O           53.0072    25.7834     8.4043 O             1 RES     
    1872 O           71.9824    25.7834     8.4043 O             1 RES     
    1873 Al          54.7529    49.2826     1.9370 Al            1 RES     
    1874 Al          45.2653    65.7156     1.9370 Al            1 RES     
    1875 Al          73.7281    49.2826     1.9370 Al            1 RES     
    1876 Al          64.2405    65.7156     1.9370 Al            1 RES     
    1877 Al          53.2824    39.2092     1.9370 Al            1 RES     
    1878 Al          43.7948    55.6422     1.9370 Al            1 RES     
    1879 Al          72.2576    39.2092     1.9370 Al            1 RES     
    1880 Al          62.7700    55.6422     1.9370 Al            1 RES     
    1881 Al          43.7663    42.9723     1.9370 Al            1 RES     
    1882 Al          62.7415    42.9723     1.9370 Al            1 RES     
    1883 Al          53.2539    59.4053     1.9370 Al            1 RES     
    1884 Al          72.2291    59.4053     1.9370 Al            1 RES     
    1885 Al          49.6107    32.8824     5.9892 Al            1 RES     
    1886 Al          40.1231    49.3155     5.9892 Al            1 RES     
    1887 Al          68.5859    32.8824     5.9892 Al            1 RES     
    1888 Al          59.0983    49.3155     5.9892 Al            1 RES     
    1889 Al          51.0812    42.9559     5.9892 Al            1 RES     
    1890 Al          41.5936    59.3889     5.9892 Al            1 RES     
    1891 Al          70.0564    42.9559     5.9892 Al            1 RES     
    1892 Al          60.5688    59.3889     5.9892 Al            1 RES     
    1893 Al          41.6221    39.1927     5.9892 Al            1 RES     
    1894 Al          60.5973    39.1927     5.9892 Al            1 RES     
    1895 Al          51.1097    55.6257     5.9892 Al            1 RES     
    1896 Al          70.0849    55.6257     5.9892 Al            1 RES     
    1897 Al          39.0984    46.4561     1.6533 Al            1 RES     
    1898 Al          58.0736    46.4561     1.6533 Al            1 RES     
    1899 Al          48.5860    62.8891     1.6533 Al            1 RES     
    1900 Al          67.5612    62.8891     1.6533 Al            1 RES     
    1901 Al          54.0698    43.4982     1.6533 Al            1 RES     
    1902 Al          44.5822    59.9312     1.6533 Al            1 RES     
    1903 Al          73.0450    43.4982     1.6533 Al            1 RES     
    1904 Al          63.5574    59.9312     1.6533 Al            1 RES     
    1905 Al          39.6582    41.5098     1.6533 Al            1 RES     
    1906 Al          58.6334    41.5098     1.6533 Al            1 RES     
    1907 Al          49.1458    57.9428     1.6533 Al            1 RES     
    1908 Al          68.1210    57.9428     1.6533 Al            1 RES     
    1909 Al          46.2900    35.7089     5.7055 Al            1 RES     
    1910 Al          65.2652    35.7089     5.7055 Al            1 RES     
    1911 Al          55.7776    52.1419     5.7055 Al            1 RES     
    1912 Al          74.7528    52.1419     5.7055 Al            1 RES     
    1913 Al          50.2938    38.6669     5.7055 Al            1 RES     
    1914 Al          40.8062    55.0999     5.7055 Al            1 RES     
    1915 Al          69.2690    38.6669     5.7055 Al            1 RES     
    1916 Al          59.7814    55.0999     5.7055 Al            1 RES     
    1917 Al          45.7302    40.6553     5.7055 Al            1 RES     
    1918 Al          64.7054    40.6553     5.7055 Al            1 RES     
    1919 Al          55.2178    57.0883     5.7055 Al            1 RES     
    1920 Al          74.1930    57.0883     5.7055 Al            1 RES     
    1921 Al          48.7568    35.6432     1.6047 Al            1 RES     
    1922 Al          39.2692    52.0762     1.6047 Al            1 RES     
    1923 Al          67.7320    35.6432     1.6047 Al            1 RES     
    1924 Al          58.2444    52.0762     1.6047 Al            1 RES     
    1925 Al          49.1173    40.8360     1.6047 Al            1 RES     
    1926 Al          39.6297    57.2690     1.6047 Al            1 RES     
    1927 Al          68.0925    40.8360     1.6047 Al            1 RES     
    1928 Al          58.6049    57.2690     1.6047 Al            1 RES     
    1929 Al          44.4399    38.5518     1.6047 Al            1 RES     
    1930 Al          63.4151    38.5518     1.6047 Al            1 RES     
    1931 Al          53.9275    54.9848     1.6047 Al            1 RES     
    1932 Al          72.9027    54.9848     1.6047 Al            1 RES     
    1933 Al          55.6068    46.5218     5.6569 Al            1 RES     
    1934 Al          46.1192    62.9548     5.6569 Al            1 RES     
    1935 Al          74.5820    46.5218     5.6569 Al            1 RES     
    1936 Al          65.0944    62.9548     5.6569 Al            1 RES     
    1937 Al          55.2463    41.3290     5.6569 Al            1 RES     
    1938 Al          45.7587    57.7620     5.6569 Al            1 RES     
    1939 Al          74.2215    41.3290     5.6569 Al            1 RES     
    1940 Al          64.7339    57.7620     5.6569 Al            1 RES     
    1941 Al          40.9485    43.6132     5.6569 Al            1 RES     
    1942 Al          59.9237    43.6132     5.6569 Al            1 RES     
    1943 Al          50.4361    60.0462     5.6569 Al            1 RES     
    1944 Al          69.4113    60.0462     5.6569 Al            1 RES     
    1945 P           38.9086    49.2826     2.9014 P             1 RES     
    1946 P           57.8838    49.2826     2.9014 P             1 RES     
    1947 P           48.3962    65.7156     2.9014 P             1 RES     
    1948 P           67.3714    65.7156     2.9014 P             1 RES     
    1949 P           51.7169    41.9206     2.9014 P             1 RES     
    1950 P           42.2293    58.3536     2.9014 P             1 RES     
    1951 P           70.6921    41.9206     2.9014 P             1 RES     
    1952 P           61.2045    58.3536     2.9014 P             1 RES     
    1953 P           42.2008    40.2609     2.9014 P             1 RES     
    1954 P           61.1760    40.2609     2.9014 P             1 RES     
    1955 P           51.6884    56.6939     2.9014 P             1 RES     
    1956 P           70.6636    56.6939     2.9014 P             1 RES     
    1957 P           46.4798    32.8824     6.9536 P             1 RES     
    1958 P           65.4550    32.8824     6.9536 P             1 RES     
    1959 P           55.9674    49.3155     6.9536 P             1 RES     
    1960 P           74.9426    49.3155     6.9536 P             1 RES     
    1961 P           52.6467    40.2444     6.9536 P             1 RES     
    1962 P           43.1591    56.6774     6.9536 P             1 RES     
    1963 P           71.6219    40.2444     6.9536 P             1 RES     
    1964 P           62.1343    56.6774     6.9536 P             1 RES     
    1965 P           43.1876    41.9042     6.9536 P             1 RES     
    1966 P           62.1628    41.9042     6.9536 P             1 RES     
    1967 P           52.6752    58.3372     6.9536 P             1 RES     
    1968 P           71.6504    58.3372     6.9536 P             1 RES     
    1969 P           55.0945    46.2589     2.5934 P             1 RES     
    1970 P           45.6069    62.6919     2.5934 P             1 RES     
    1971 P           74.0697    46.2589     2.5934 P             1 RES     
    1972 P           64.5821    62.6919     2.5934 P             1 RES     
    1973 P           55.7302    41.0168     2.5934 P             1 RES     
    1974 P           46.2426    57.4498     2.5934 P             1 RES     
    1975 P           74.7054    41.0168     2.5934 P             1 RES     
    1976 P           65.2178    57.4498     2.5934 P             1 RES     
    1977 P           40.9769    44.1884     2.5934 P             1 RES     
    1978 P           59.9521    44.1884     2.5934 P             1 RES     
    1979 P           50.4645    60.6214     2.5934 P             1 RES     
    1980 P           69.4397    60.6214     2.5934 P             1 RES     
    1981 P           49.2691    35.9061     6.6456 P             1 RES     
    1982 P           39.7815    52.3391     6.6456 P             1 RES     
    1983 P           68.2443    35.9061     6.6456 P             1 RES     
    1984 P           58.7567    52.3391     6.6456 P             1 RES     
    1985 P           48.6334    41.1482     6.6456 P             1 RES     
    1986 P           39.1458    57.5813     6.6456 P             1 RES     
    1987 P           67.6086    41.1482     6.6456 P             1 RES     
    1988 P           58.1210    57.5813     6.6456 P             1 RES     
    1989 P           44.4115    37.9767     6.6456 P             1 RES     
    1990 P           63.3867    37.9767     6.6456 P             1 RES     
    1991 P           53.8991    54.4097     6.6456 P             1 RES     
    1992 P           72.8743    54.4097     6.6456 P             1 RES     
    1993 P           45.8156    35.9061     2.5043 P             1 RES     
    1994 P           64.7908    35.9061     2.5043 P             1 RES     
    1995 P           55.3032    52.3391     2.5043 P             1 RES     
    1996 P           74.2784    52.3391     2.5043 P             1 RES     
    1997 P           50.3602    38.1574     2.5043 P             1 RES     
    1998 P           40.8726    54.5904     2.5043 P             1 RES     
    1999 P           69.3354    38.1574     2.5043 P             1 RES     
    2000 P           59.8478    54.5904     2.5043 P             1 RES     
    2001 P           46.1382    40.9675     2.5043 P             1 RES     
    2002 P           65.1134    40.9675     2.5043 P             1 RES     
    2003 P           55.6258    57.4005     2.5043 P             1 RES     
    2004 P           74.6010    57.4005     2.5043 P             1 RES     
    2005 P           39.5728    46.2589     6.5565 P             1 RES     
    2006 P           58.5480    46.2589     6.5565 P             1 RES     
    2007 P           49.0604    62.6919     6.5565 P             1 RES     
    2008 P           68.0356    62.6919     6.5565 P             1 RES     
    2009 P           54.0034    44.0076     6.5565 P             1 RES     
    2010 P           44.5158    60.4406     6.5565 P             1 RES     
    2011 P           72.9786    44.0076     6.5565 P             1 RES     
    2012 P           63.4910    60.4406     6.5565 P             1 RES     
    2013 P           39.2502    41.1975     6.5565 P             1 RES     
    2014 P           58.2254    41.1975     6.5565 P             1 RES     
    2015 P           48.7378    57.6306     6.5565 P             1 RES     
    2016 P           67.7130    57.6306     6.5565 P             1 RES     
    2017 O           46.8593    32.8824     2.7474 O             1 RES     
    2018 O           65.8345    32.8824     2.7474 O             1 RES     
    2019 O           56.3469    49.3155     2.7474 O             1 RES     
    2020 O           75.3221    49.3155     2.7474 O             1 RES     
    2021 O           52.4569    40.5731     2.7474 O             1 RES     
    2022 O           42.9693    57.0061     2.7474 O             1 RES     
    2023 O           71.4321    40.5731     2.7474 O             1 RES     
    2024 O           61.9445    57.0061     2.7474 O             1 RES     
    2025 O           42.9978    41.5755     2.7474 O             1 RES     
    2026 O           61.9730    41.5755     2.7474 O             1 RES     
    2027 O           52.4854    58.0085     2.7474 O             1 RES     
    2028 O           71.4606    58.0085     2.7474 O             1 RES     
    2029 O           38.5291    49.2826     6.7996 O             1 RES     
    2030 O           57.5043    49.2826     6.7996 O             1 RES     
    2031 O           48.0167    65.7156     6.7996 O             1 RES     
    2032 O           66.9919    65.7156     6.7996 O             1 RES     
    2033 O           51.9067    41.5919     6.7996 O             1 RES     
    2034 O           42.4191    58.0249     6.7996 O             1 RES     
    2035 O           70.8819    41.5919     6.7996 O             1 RES     
    2036 O           61.3943    58.0249     6.7996 O             1 RES     
    2037 O           42.3906    40.5895     6.7996 O             1 RES     
    2038 O           61.3658    40.5895     6.7996 O             1 RES     
    2039 O           51.8782    57.0225     6.7996 O             1 RES     
    2040 O           70.8534    57.0225     6.7996 O             1 RES     
    2041 O           46.0433    33.0139     0.2999 O             1 RES     
    2042 O           65.0185    33.0139     0.2999 O             1 RES     
    2043 O           55.5309    49.4469     0.2999 O             1 RES     
    2044 O           74.5061    49.4469     0.2999 O             1 RES     
    2045 O           52.7511    39.8007     0.2999 O             1 RES     
    2046 O           43.2635    56.2337     0.2999 O             1 RES     
    2047 O           71.7263    39.8007     0.2999 O             1 RES     
    2048 O           62.2387    56.2337     0.2999 O             1 RES     
    2049 O           43.5196    42.2164     0.2999 O             1 RES     
    2050 O           62.4948    42.2164     0.2999 O             1 RES     
    2051 O           53.0072    58.6494     0.2999 O             1 RES     
    2052 O           71.9824    58.6494     0.2999 O             1 RES     
    2053 O           39.3451    49.1511     4.3521 O             1 RES     
    2054 O           58.3203    49.1511     4.3521 O             1 RES     
    2055 O           48.8327    65.5841     4.3521 O             1 RES     
    2056 O           67.8079    65.5841     4.3521 O             1 RES     
    2057 O           51.6125    42.3643     4.3521 O             1 RES     
    2058 O           42.1249    58.7973     4.3521 O             1 RES     
    2059 O           70.5877    42.3643     4.3521 O             1 RES     
    2060 O           61.1001    58.7973     4.3521 O             1 RES     
    2061 O           41.8688    39.9486     4.3521 O             1 RES     
    2062 O           60.8440    39.9486     4.3521 O             1 RES     
    2063 O           51.3564    56.3816     4.3521 O             1 RES     
    2064 O           70.3316    56.3816     4.3521 O             1 RES     
    2065 O           54.6106    47.4585     1.8073 O             1 RES     
    2066 O           45.1230    63.8915     1.8073 O             1 RES     
    2067 O           73.5858    47.4585     1.8073 O             1 RES     
    2068 O           64.0982    63.8915     1.8073 O             1 RES     
    2069 O           54.9332    39.9979     1.8073 O             1 RES     
    2070 O           45.4456    56.4309     1.8073 O             1 RES     
    2071 O           73.9084    39.9979     1.8073 O             1 RES     
    2072 O           64.4208    56.4309     1.8073 O             1 RES     
    2073 O           42.2578    44.0076     1.8073 O             1 RES     
    2074 O           61.2330    44.0076     1.8073 O             1 RES     
    2075 O           51.7454    60.4406     1.8073 O             1 RES     
    2076 O           70.7206    60.4406     1.8073 O             1 RES     
    2077 O           49.7530    34.7065     5.8595 O             1 RES     
    2078 O           40.2654    51.1395     5.8595 O             1 RES     
    2079 O           68.7282    34.7065     5.8595 O             1 RES     
    2080 O           59.2406    51.1395     5.8595 O             1 RES     
    2081 O           49.4304    42.1671     5.8595 O             1 RES     
    2082 O           39.9428    58.6001     5.8595 O             1 RES     
    2083 O           68.4056    42.1671     5.8595 O             1 RES     
    2084 O           58.9180    58.6001     5.8595 O             1 RES     
    2085 O           43.1306    38.1574     5.8595 O             1 RES     
    2086 O           62.1058    38.1574     5.8595 O             1 RES     
    2087 O           52.6182    54.5904     5.8595 O             1 RES     
    2088 O           71.5934    54.5904     5.8595 O             1 RES     
    2089 O           45.0566    34.6901     2.0666 O             1 RES     
    2090 O           64.0318    34.6901     2.0666 O             1 RES     
    2091 O           54.5442    51.1231     2.0666 O             1 RES     
    2092 O           73.5194    51.1231     2.0666 O             1 RES     
    2093 O           51.7928    38.1081     2.0666 O             1 RES     
    2094 O           42.3052    54.5411     2.0666 O             1 RES     
    2095 O           70.7680    38.1081     2.0666 O             1 RES     
    2096 O           61.2804    54.5411     2.0666 O             1 RES     
    2097 O           45.4646    42.2328     2.0666 O             1 RES     
    2098 O           64.4398    42.2328     2.0666 O             1 RES     
    2099 O           54.9522    58.6658     2.0666 O             1 RES     
    2100 O           73.9274    58.6658     2.0666 O             1 RES     
    2101 O           40.3318    47.4750     6.1188 O             1 RES     
    2102 O           59.3070    47.4750     6.1188 O             1 RES     
    2103 O           49.8194    63.9080     6.1188 O             1 RES     
    2104 O           68.7946    63.9080     6.1188 O             1 RES     
    2105 O           52.5708    44.0569     6.1188 O             1 RES     
    2106 O           43.0832    60.4899     6.1188 O             1 RES     
    2107 O           71.5460    44.0569     6.1188 O             1 RES     
    2108 O           62.0584    60.4899     6.1188 O             1 RES     
    2109 O           39.9238    39.9322     6.1188 O             1 RES     
    2110 O           58.8990    39.9322     6.1188 O             1 RES     
    2111 O           49.4114    56.3652     6.1188 O             1 RES     
    2112 O           68.3866    56.3652     6.1188 O             1 RES     
    2113 O           39.4115    48.0830     2.1396 O             1 RES     
    2114 O           58.3867    48.0830     2.1396 O             1 RES     
    2115 O           48.8991    64.5160     2.1396 O             1 RES     
    2116 O           67.8743    64.5160     2.1396 O             1 RES     
    2117 O           52.5044    42.9559     2.1396 O             1 RES     
    2118 O           43.0168    59.3889     2.1396 O             1 RES     
    2119 O           71.4796    42.9559     2.1396 O             1 RES     
    2120 O           61.9920    59.3889     2.1396 O             1 RES     
    2121 O           40.9105    40.4252     2.1396 O             1 RES     
    2122 O           59.8857    40.4252     2.1396 O             1 RES     
    2123 O           50.3981    56.8582     2.1396 O             1 RES     
    2124 O           69.3733    56.8582     2.1396 O             1 RES     
    2125 O           45.9769    34.0821     6.1918 O             1 RES     
    2126 O           64.9521    34.0821     6.1918 O             1 RES     
    2127 O           55.4645    50.5151     6.1918 O             1 RES     
    2128 O           74.4397    50.5151     6.1918 O             1 RES     
    2129 O           51.8592    39.2092     6.1918 O             1 RES     
    2130 O           42.3716    55.6422     6.1918 O             1 RES     
    2131 O           70.8344    39.2092     6.1918 O             1 RES     
    2132 O           61.3468    55.6422     6.1918 O             1 RES     
    2133 O           44.4779    41.7398     6.1918 O             1 RES     
    2134 O           63.4531    41.7398     6.1918 O             1 RES     
    2135 O           53.9655    58.1728     6.1918 O             1 RES     
    2136 O           72.9407    58.1728     6.1918 O             1 RES     
    2137 O           49.0129    34.0492     2.2530 O             1 RES     
    2138 O           39.5253    50.4822     2.2530 O             1 RES     
    2139 O           67.9881    34.0492     2.2530 O             1 RES     
    2140 O           58.5005    50.4822     2.2530 O             1 RES     
    2141 O           50.3697    41.8549     2.2530 O             1 RES     
    2142 O           40.8821    58.2879     2.2530 O             1 RES     
    2143 O           69.3449    41.8549     2.2530 O             1 RES     
    2144 O           59.8573    58.2879     2.2530 O             1 RES     
    2145 O           42.9314    39.1270     2.2530 O             1 RES     
    2146 O           61.9066    39.1270     2.2530 O             1 RES     
    2147 O           52.4190    55.5600     2.2530 O             1 RES     
    2148 O           71.3942    55.5600     2.2530 O             1 RES     
    2149 O           55.3507    48.1158     6.3052 O             1 RES     
    2150 O           45.8631    64.5488     6.3052 O             1 RES     
    2151 O           74.3259    48.1158     6.3052 O             1 RES     
    2152 O           64.8383    64.5488     6.3052 O             1 RES     
    2153 O           53.9939    40.3102     6.3052 O             1 RES     
    2154 O           44.5063    56.7432     6.3052 O             1 RES     
    2155 O           72.9691    40.3102     6.3052 O             1 RES     
    2156 O           63.4815    56.7432     6.3052 O             1 RES     
    2157 O           42.4570    43.0380     6.3052 O             1 RES     
    2158 O           61.4322    43.0380     6.3052 O             1 RES     
    2159 O           51.9446    59.4710     6.3052 O             1 RES     
    2160 O           70.9198    59.4710     6.3052 O             1 RES     
    2161 O           40.3697    45.5030     2.2692 O             1 RES     
    2162 O           59.3449    45.5030     2.2692 O             1 RES     
    2163 O           49.8573    61.9360     2.2692 O             1 RES     
    2164 O           68.8325    61.9360     2.2692 O             1 RES     
    2165 O           54.2596    45.0757     2.2692 O             1 RES     
    2166 O           44.7720    61.5087     2.2692 O             1 RES     
    2167 O           73.2348    45.0757     2.2692 O             1 RES     
    2168 O           63.7472    61.5087     2.2692 O             1 RES     
    2169 O           38.1971    40.8853     2.2692 O             1 RES     
    2170 O           57.1723    40.8853     2.2692 O             1 RES     
    2171 O           47.6847    57.3183     2.2692 O             1 RES     
    2172 O           66.6599    57.3183     2.2692 O             1 RES     
    2173 O           45.0187    36.6620     6.3214 O             1 RES     
    2174 O           63.9939    36.6620     6.3214 O             1 RES     
    2175 O           54.5063    53.0950     6.3214 O             1 RES     
    2176 O           73.4815    53.0950     6.3214 O             1 RES     
    2177 O           50.1040    37.0893     6.3214 O             1 RES     
    2178 O           40.6164    53.5223     6.3214 O             1 RES     
    2179 O           69.0792    37.0893     6.3214 O             1 RES     
    2180 O           59.5916    53.5223     6.3214 O             1 RES     
    2181 O           47.1913    41.2797     6.3214 O             1 RES     
    2182 O           66.1665    41.2797     6.3214 O             1 RES     
    2183 O           56.6789    57.7127     6.3214 O             1 RES     
    2184 O           75.6541    57.7127     6.3214 O             1 RES     
    2185 O           56.5651    45.9138     2.2692 O             1 RES     
    2186 O           47.0775    62.3468     2.2692 O             1 RES     
    2187 O           75.5403    45.9138     2.2692 O             1 RES     
    2188 O           66.0527    62.3468     2.2692 O             1 RES     
    2189 O           55.2937    42.4629     2.2692 O             1 RES     
    2190 O           45.8061    58.8959     2.2692 O             1 RES     
    2191 O           74.2689    42.4629     2.2692 O             1 RES     
    2192 O           64.7813    58.8959     2.2692 O             1 RES     
    2193 O           39.9428    43.0873     2.2692 O             1 RES     
    2194 O           58.9180    43.0873     2.2692 O             1 RES     
    2195 O           49.4304    59.5203     2.2692 O             1 RES     
    2196 O           68.4056    59.5203     2.2692 O             1 RES     
    2197 O           47.7985    36.2512     6.3214 O             1 RES     
    2198 O           38.3109    52.6842     6.3214 O             1 RES     
    2199 O           66.7737    36.2512     6.3214 O             1 RES     
    2200 O           57.2861    52.6842     6.3214 O             1 RES     
    2201 O           49.0699    39.7021     6.3214 O             1 RES     
    2202 O           39.5823    56.1351     6.3214 O             1 RES     
    2203 O           68.0451    39.7021     6.3214 O             1 RES     
    2204 O           58.5575    56.1351     6.3214 O             1 RES     
    2205 O           45.4456    39.0777     6.3214 O             1 RES     
    2206 O           64.4208    39.0777     6.3214 O             1 RES     
    2207 O           54.9332    55.5107     6.3214 O             1 RES     
    2208 O           73.9084    55.5107     6.3214 O             1 RES     
    2209 O           39.1174    46.4232     7.9828 O             1 RES     
    2210 O           58.0926    46.4232     7.9828 O             1 RES     
    2211 O           48.6050    62.8562     7.9828 O             1 RES     
    2212 O           67.5802    62.8562     7.9828 O             1 RES     
    2213 O           54.0888    43.5310     7.9828 O             1 RES     
    2214 O           44.6012    59.9640     7.9828 O             1 RES     
    2215 O           73.0640    43.5310     7.9828 O             1 RES     
    2216 O           63.5764    59.9640     7.9828 O             1 RES     
    2217 O           39.6202    41.5098     7.9828 O             1 RES     
    2218 O           58.5954    41.5098     7.9828 O             1 RES     
    2219 O           49.1078    57.9428     7.9828 O             1 RES     
    2220 O           68.0830    57.9428     7.9828 O             1 RES     
    2221 O           46.2710    35.7418     3.9306 O             1 RES     
    2222 O           65.2462    35.7418     3.9306 O             1 RES     
    2223 O           55.7586    52.1748     3.9306 O             1 RES     
    2224 O           74.7338    52.1748     3.9306 O             1 RES     
    2225 O           50.2748    38.6340     3.9306 O             1 RES     
    2226 O           40.7872    55.0670     3.9306 O             1 RES     
    2227 O           69.2500    38.6340     3.9306 O             1 RES     
    2228 O           59.7624    55.0670     3.9306 O             1 RES     
    2229 O           45.7682    40.6553     3.9306 O             1 RES     
    2230 O           64.7434    40.6553     3.9306 O             1 RES     
    2231 O           55.2558    57.0883     3.9306 O             1 RES     
    2232 O           74.2310    57.0883     3.9306 O             1 RES     
    2233 O           54.9332    46.5383     4.0522 O             1 RES     
    2234 O           45.4456    62.9713     4.0522 O             1 RES     
    2235 O           73.9084    46.5383     4.0522 O             1 RES     
    2236 O           64.4208    62.9713     4.0522 O             1 RES     
    2237 O           55.5689    40.7374     4.0522 O             1 RES     
    2238 O           46.0813    57.1704     4.0522 O             1 RES     
    2239 O           74.5441    40.7374     4.0522 O             1 RES     
    2240 O           65.0565    57.1704     4.0522 O             1 RES     
    2241 O           41.2995    44.1884     4.0522 O             1 RES     
    2242 O           60.2747    44.1884     4.0522 O             1 RES     
    2243 O           50.7871    60.6214     4.0522 O             1 RES     
    2244 O           69.7623    60.6214     4.0522 O             1 RES     
    2245 O           49.4304    35.6268     0.0000 O             1 RES     
    2246 O           49.4304    35.6268     8.1044 O             1 RES     
    2247 O           39.9428    52.0598     0.0000 O             1 RES     
    2248 O           39.9428    52.0598     8.1044 O             1 RES     
    2249 O           68.4056    35.6268     0.0000 O             1 RES     
    2250 O           68.4056    35.6268     8.1044 O             1 RES     
    2251 O           58.9180    52.0598     0.0000 O             1 RES     
    2252 O           58.9180    52.0598     8.1044 O             1 RES     
    2253 O           48.7947    41.4276     0.0000 O             1 RES     
    2254 O           48.7947    41.4276     8.1044 O             1 RES     
    2255 O           39.3071    57.8606     0.0000 O             1 RES     
    2256 O           39.3071    57.8606     8.1044 O             1 RES     
    2257 O           67.7699    41.4276     0.0000 O             1 RES     
    2258 O           67.7699    41.4276     8.1044 O             1 RES     
    2259 O           58.2823    57.8606     0.0000 O             1 RES     
    2260 O           58.2823    57.8606     8.1044 O             1 RES     
    2261 O           44.0889    37.9767     0.0000 O             1 RES     
    2262 O           44.0889    37.9767     8.1044 O             1 RES     
    2263 O           63.0641    37.9767     0.0000 O             1 RES     
    2264 O           63.0641    37.9767     8.1044 O             1 RES     
    2265 O           53.5765    54.4097     0.0000 O             1 RES     
    2266 O           53.5765    54.4097     8.1044 O             1 RES     
    2267 O           72.5517    54.4097     0.0000 O             1 RES     
    2268 O           72.5517    54.4097     8.1044 O             1 RES     
    2269 O           47.0111    36.0704     1.6047 O             1 RES     
    2270 O           65.9863    36.0704     1.6047 O             1 RES     
    2271 O           56.4987    52.5035     1.6047 O             1 RES     
    2272 O           75.4739    52.5035     1.6047 O             1 RES     
    2273 O           49.6201    39.1106     1.6047 O             1 RES     
    2274 O           40.1325    55.5436     1.6047 O             1 RES     
    2275 O           68.5953    39.1106     1.6047 O             1 RES     
    2276 O           59.1077    55.5436     1.6047 O             1 RES     
    2277 O           45.6828    39.8500     1.6047 O             1 RES     
    2278 O           64.6580    39.8500     1.6047 O             1 RES     
    2279 O           55.1704    56.2830     1.6047 O             1 RES     
    2280 O           74.1456    56.2830     1.6047 O             1 RES     
    2281 O           38.3773    46.0946     5.6569 O             1 RES     
    2282 O           57.3525    46.0946     5.6569 O             1 RES     
    2283 O           47.8649    62.5276     5.6569 O             1 RES     
    2284 O           66.8401    62.5276     5.6569 O             1 RES     
    2285 O           54.7435    43.0545     5.6569 O             1 RES     
    2286 O           45.2559    59.4875     5.6569 O             1 RES     
    2287 O           73.7187    43.0545     5.6569 O             1 RES     
    2288 O           64.2311    59.4875     5.6569 O             1 RES     
    2289 O           39.7056    42.3150     5.6569 O             1 RES     
    2290 O           58.6808    42.3150     5.6569 O             1 RES     
    2291 O           49.1932    58.7480     5.6569 O             1 RES     
    2292 O           68.1684    58.7480     5.6569 O             1 RES     
    2293 O           49.7340    36.7442     2.5529 O             1 RES     
    2294 O           40.2464    53.1772     2.5529 O             1 RES     
    2295 O           68.7092    36.7442     2.5529 O             1 RES     
    2296 O           59.2216    53.1772     2.5529 O             1 RES     
    2297 O           47.6752    41.1318     2.5529 O             1 RES     
    2298 O           38.1876    57.5648     2.5529 O             1 RES     
    2299 O           66.6504    41.1318     2.5529 O             1 RES     
    2300 O           57.1628    57.5648     2.5529 O             1 RES     
    2301 O           44.9048    37.1550     2.5529 O             1 RES     
    2302 O           63.8800    37.1550     2.5529 O             1 RES     
    2303 O           54.3924    53.5880     2.5529 O             1 RES     
    2304 O           73.3676    53.5880     2.5529 O             1 RES     
    2305 O           54.6296    45.4208     6.6051 O             1 RES     
    2306 O           45.1420    61.8538     6.6051 O             1 RES     
    2307 O           73.6048    45.4208     6.6051 O             1 RES     
    2308 O           64.1172    61.8538     6.6051 O             1 RES     
    2309 O           56.6884    41.0332     6.6051 O             1 RES     
    2310 O           47.2008    57.4662     6.6051 O             1 RES     
    2311 O           75.6636    41.0332     6.6051 O             1 RES     
    2312 O           66.1760    57.4662     6.6051 O             1 RES     
    2313 O           40.4836    45.0100     6.6051 O             1 RES     
    2314 O           59.4588    45.0100     6.6051 O             1 RES     
    2315 O           49.9712    61.4430     6.6051 O             1 RES     
    2316 O           68.9464    61.4430     6.6051 O             1 RES     
    2317 O           39.1174    46.4232    -0.1216 O             1 RES     
    2318 O           58.0926    46.4232    -0.1216 O             1 RES     
    2319 O           48.6050    62.8562    -0.1216 O             1 RES     
    2320 O           67.5802    62.8562    -0.1216 O             1 RES     
    2321 O           54.0888    43.5310    -0.1216 O             1 RES     
    2322 O           44.6012    59.9640    -0.1216 O             1 RES     
    2323 O           73.0640    43.5310    -0.1216 O             1 RES     
    2324 O           63.5764    59.9640    -0.1216 O             1 RES     
    2325 O           39.6202    41.5098    -0.1216 O             1 RES     
    2326 O           58.5954    41.5098    -0.1216 O             1 RES     
    2327 O           49.1078    57.9428    -0.1216 O             1 RES     
    2328 O           68.0830    57.9428    -0.1216 O             1 RES     
    2329 O           46.0433    33.0139     8.4043 O             1 RES     
    2330 O           65.0185    33.0139     8.4043 O             1 RES     
    2331 O           55.5309    49.4469     8.4043 O             1 RES     
    2332 O           74.5061    49.4469     8.4043 O             1 RES     
    2333 O           52.7511    39.8007     8.4043 O             1 RES     
    2334 O           43.2635    56.2337     8.4043 O             1 RES     
    2335 O           71.7263    39.8007     8.4043 O             1 RES     
    2336 O           62.2387    56.2337     8.4043 O             1 RES     
    2337 O           43.5196    42.2164     8.4043 O             1 RES     
    2338 O           62.4948    42.2164     8.4043 O             1 RES     
    2339 O           53.0072    58.6494     8.4043 O             1 RES     
    2340 O           71.9824    58.6494     8.4043 O             1 RES     
    2341 Al          54.7529    82.1486     1.9370 Al            1 RES     
    2342 Al          45.2653    98.5816     1.9370 Al            1 RES     
    2343 Al          73.7281    82.1486     1.9370 Al            1 RES     
    2344 Al          64.2405    98.5816     1.9370 Al            1 RES     
    2345 Al          53.2824    72.0752     1.9370 Al            1 RES     
    2346 Al          43.7948    88.5082     1.9370 Al            1 RES     
    2347 Al          72.2576    72.0752     1.9370 Al            1 RES     
    2348 Al          62.7700    88.5082     1.9370 Al            1 RES     
    2349 Al          43.7663    75.8383     1.9370 Al            1 RES     
    2350 Al          62.7415    75.8383     1.9370 Al            1 RES     
    2351 Al          53.2539    92.2713     1.9370 Al            1 RES     
    2352 Al          72.2291    92.2713     1.9370 Al            1 RES     
    2353 Al          49.6107    65.7485     5.9892 Al            1 RES     
    2354 Al          40.1231    82.1815     5.9892 Al            1 RES     
    2355 Al          68.5859    65.7485     5.9892 Al            1 RES     
    2356 Al          59.0983    82.1815     5.9892 Al            1 RES     
    2357 Al          51.0812    75.8219     5.9892 Al            1 RES     
    2358 Al          41.5936    92.2549     5.9892 Al            1 RES     
    2359 Al          70.0564    75.8219     5.9892 Al            1 RES     
    2360 Al          60.5688    92.2549     5.9892 Al            1 RES     
    2361 Al          41.6221    72.0587     5.9892 Al            1 RES     
    2362 Al          60.5973    72.0587     5.9892 Al            1 RES     
    2363 Al          51.1097    88.4917     5.9892 Al            1 RES     
    2364 Al          70.0849    88.4917     5.9892 Al            1 RES     
    2365 Al          39.0984    79.3221     1.6533 Al            1 RES     
    2366 Al          58.0736    79.3221     1.6533 Al            1 RES     
    2367 Al          48.5860    95.7551     1.6533 Al            1 RES     
    2368 Al          67.5612    95.7551     1.6533 Al            1 RES     
    2369 Al          54.0698    76.3642     1.6533 Al            1 RES     
    2370 Al          44.5822    92.7972     1.6533 Al            1 RES     
    2371 Al          73.0450    76.3642     1.6533 Al            1 RES     
    2372 Al          63.5574    92.7972     1.6533 Al            1 RES     
    2373 Al          39.6582    74.3758     1.6533 Al            1 RES     
    2374 Al          58.6334    74.3758     1.6533 Al            1 RES     
    2375 Al          49.1458    90.8088     1.6533 Al            1 RES     
    2376 Al          68.1210    90.8088     1.6533 Al            1 RES     
    2377 Al          46.2900    68.5749     5.7055 Al            1 RES     
    2378 Al          65.2652    68.5749     5.7055 Al            1 RES     
    2379 Al          55.7776    85.0079     5.7055 Al            1 RES     
    2380 Al          74.7528    85.0079     5.7055 Al            1 RES     
    2381 Al          50.2938    71.5329     5.7055 Al            1 RES     
    2382 Al          40.8062    87.9659     5.7055 Al            1 RES     
    2383 Al          69.2690    71.5329     5.7055 Al            1 RES     
    2384 Al          59.7814    87.9659     5.7055 Al            1 RES     
    2385 Al          45.7302    73.5213     5.7055 Al            1 RES     
    2386 Al          64.7054    73.5213     5.7055 Al            1 RES     
    2387 Al          55.2178    89.9543     5.7055 Al            1 RES     
    2388 Al          74.1930    89.9543     5.7055 Al            1 RES     
    2389 Al          48.7568    68.5092     1.6047 Al            1 RES     
    2390 Al          39.2692    84.9422     1.6047 Al            1 RES     
    2391 Al          67.7320    68.5092     1.6047 Al            1 RES     
    2392 Al          58.2444    84.9422     1.6047 Al            1 RES     
    2393 Al          49.1173    73.7020     1.6047 Al            1 RES     
    2394 Al          39.6297    90.1350     1.6047 Al            1 RES     
    2395 Al          68.0925    73.7020     1.6047 Al            1 RES     
    2396 Al          58.6049    90.1350     1.6047 Al            1 RES     
    2397 Al          44.4399    71.4178     1.6047 Al            1 RES     
    2398 Al          63.4151    71.4178     1.6047 Al            1 RES     
    2399 Al          53.9275    87.8508     1.6047 Al            1 RES     
    2400 Al          72.9027    87.8508     1.6047 Al            1 RES     
    2401 Al          55.6068    79.3878     5.6569 Al            1 RES     
    2402 Al          46.1192    95.8209     5.6569 Al            1 RES     
    2403 Al          74.5820    79.3878     5.6569 Al            1 RES     
    2404 Al          65.0944    95.8209     5.6569 Al            1 RES     
    2405 Al          55.2463    74.1950     5.6569 Al            1 RES     
    2406 Al          45.7587    90.6280     5.6569 Al            1 RES     
    2407 Al          74.2215    74.1950     5.6569 Al            1 RES     
    2408 Al          64.7339    90.6280     5.6569 Al            1 RES     
    2409 Al          40.9485    76.4792     5.6569 Al            1 RES     
    2410 Al          59.9237    76.4792     5.6569 Al            1 RES     
    2411 Al          50.4361    92.9122     5.6569 Al            1 RES     
    2412 Al          69.4113    92.9122     5.6569 Al            1 RES     
    2413 P           38.9086    82.1486     2.9014 P             1 RES     
    2414 P           57.8838    82.1486     2.9014 P             1 RES     
    2415 P           48.3962    98.5816     2.9014 P             1 RES     
    2416 P           67.3714    98.5816     2.9014 P             1 RES     
    2417 P           51.7169    74.7866     2.9014 P             1 RES     
    2418 P           42.2293    91.2196     2.9014 P             1 RES     
    2419 P           70.6921    74.7866     2.9014 P             1 RES     
    2420 P           61.2045    91.2196     2.9014 P             1 RES     
    2421 P           42.2008    73.1269     2.9014 P             1 RES     
    2422 P           61.1760    73.1269     2.9014 P             1 RES     
    2423 P           51.6884    89.5599     2.9014 P             1 RES     
    2424 P           70.6636    89.5599     2.9014 P             1 RES     
    2425 P           46.4798    65.7485     6.9536 P             1 RES     
    2426 P           65.4550    65.7485     6.9536 P             1 RES     
    2427 P           55.9674    82.1815     6.9536 P             1 RES     
    2428 P           74.9426    82.1815     6.9536 P             1 RES     
    2429 P           52.6467    73.1104     6.9536 P             1 RES     
    2430 P           43.1591    89.5434     6.9536 P             1 RES     
    2431 P           71.6219    73.1104     6.9536 P             1 RES     
    2432 P           62.1343    89.5434     6.9536 P             1 RES     
    2433 P           43.1876    74.7702     6.9536 P             1 RES     
    2434 P           62.1628    74.7702     6.9536 P             1 RES     
    2435 P           52.6752    91.2032     6.9536 P             1 RES     
    2436 P           71.6504    91.2032     6.9536 P             1 RES     
    2437 P           55.0945    79.1249     2.5934 P             1 RES     
    2438 P           45.6069    95.5579     2.5934 P             1 RES     
    2439 P           74.0697    79.1249     2.5934 P             1 RES     
    2440 P           64.5821    95.5579     2.5934 P             1 RES     
    2441 P           55.7302    73.8828     2.5934 P             1 RES     
    2442 P           46.2426    90.3158     2.5934 P             1 RES     
    2443 P           74.7054    73.8828     2.5934 P             1 RES     
    2444 P           65.2178    90.3158     2.5934 P             1 RES     
    2445 P           40.9769    77.0544     2.5934 P             1 RES     
    2446 P           59.9521    77.0544     2.5934 P             1 RES     
    2447 P           50.4645    93.4874     2.5934 P             1 RES     
    2448 P           69.4397    93.4874     2.5934 P             1 RES     
    2449 P           49.2691    68.7721     6.6456 P             1 RES     
    2450 P           39.7815    85.2051     6.6456 P             1 RES     
    2451 P           68.2443    68.7721     6.6456 P             1 RES     
    2452 P           58.7567    85.2051     6.6456 P             1 RES     
    2453 P           48.6334    74.0143     6.6456 P             1 RES     
    2454 P           39.1458    90.4473     6.6456 P             1 RES     
    2455 P           67.6086    74.0143     6.6456 P             1 RES     
    2456 P           58.1210    90.4473     6.6456 P             1 RES     
    2457 P           44.4115    70.8427     6.6456 P             1 RES     
    2458 P           63.3867    70.8427     6.6456 P             1 RES     
    2459 P           53.8991    87.2757     6.6456 P             1 RES     
    2460 P           72.8743    87.2757     6.6456 P             1 RES     
    2461 P           45.8156    68.7721     2.5043 P             1 RES     
    2462 P           64.7908    68.7721     2.5043 P             1 RES     
    2463 P           55.3032    85.2051     2.5043 P             1 RES     
    2464 P           74.2784    85.2051     2.5043 P             1 RES     
    2465 P           50.3602    71.0234     2.5043 P             1 RES     
    2466 P           40.8726    87.4565     2.5043 P             1 RES     
    2467 P           69.3354    71.0234     2.5043 P             1 RES     
    2468 P           59.8478    87.4565     2.5043 P             1 RES     
    2469 P           46.1382    73.8335     2.5043 P             1 RES     
    2470 P           65.1134    73.8335     2.5043 P             1 RES     
    2471 P           55.6258    90.2665     2.5043 P             1 RES     
    2472 P           74.6010    90.2665     2.5043 P             1 RES     
    2473 P           39.5728    79.1249     6.5565 P             1 RES     
    2474 P           58.5480    79.1249     6.5565 P             1 RES     
    2475 P           49.0604    95.5579     6.5565 P             1 RES     
    2476 P           68.0356    95.5579     6.5565 P             1 RES     
    2477 P           54.0034    76.8736     6.5565 P             1 RES     
    2478 P           44.5158    93.3066     6.5565 P             1 RES     
    2479 P           72.9786    76.8736     6.5565 P             1 RES     
    2480 P           63.4910    93.3066     6.5565 P             1 RES     
    2481 P           39.2502    74.0636     6.5565 P             1 RES     
    2482 P           58.2254    74.0636     6.5565 P             1 RES     
    2483 P           48.7378    90.4966     6.5565 P             1 RES     
    2484 P           67.7130    90.4966     6.5565 P             1 RES     
    2485 O           46.8593    65.7485     2.7474 O             1 RES     
    2486 O           65.8345    65.7485     2.7474 O             1 RES     
    2487 O           56.3469    82.1815     2.7474 O             1 RES     
    2488 O           75.3221    82.1815     2.7474 O             1 RES     
    2489 O           52.4569    73.4391     2.7474 O             1 RES     
    2490 O           42.9693    89.8721     2.7474 O             1 RES     
    2491 O           71.4321    73.4391     2.7474 O             1 RES     
    2492 O           61.9445    89.8721     2.7474 O             1 RES     
    2493 O           42.9978    74.4415     2.7474 O             1 RES     
    2494 O           61.9730    74.4415     2.7474 O             1 RES     
    2495 O           52.4854    90.8745     2.7474 O             1 RES     
    2496 O           71.4606    90.8745     2.7474 O             1 RES     
    2497 O           38.5291    82.1486     6.7996 O             1 RES     
    2498 O           57.5043    82.1486     6.7996 O             1 RES     
    2499 O           48.0167    98.5816     6.7996 O             1 RES     
    2500 O           66.9919    98.5816     6.7996 O             1 RES     
    2501 O           51.9067    74.4579     6.7996 O             1 RES     
    2502 O           42.4191    90.8910     6.7996 O             1 RES     
    2503 O           70.8819    74.4579     6.7996 O             1 RES     
    2504 O           61.3943    90.8910     6.7996 O             1 RES     
    2505 O           42.3906    73.4555     6.7996 O             1 RES     
    2506 O           61.3658    73.4555     6.7996 O             1 RES     
    2507 O           51.8782    89.8885     6.7996 O             1 RES     
    2508 O           70.8534    89.8885     6.7996 O             1 RES     
    2509 O           46.0433    65.8799     0.2999 O             1 RES     
    2510 O           65.0185    65.8799     0.2999 O             1 RES     
    2511 O           55.5309    82.3129     0.2999 O             1 RES     
    2512 O           74.5061    82.3129     0.2999 O             1 RES     
    2513 O           52.7511    72.6667     0.2999 O             1 RES     
    2514 O           43.2635    89.0998     0.2999 O             1 RES     
    2515 O           71.7263    72.6667     0.2999 O             1 RES     
    2516 O           62.2387    89.0998     0.2999 O             1 RES     
    2517 O           43.5196    75.0824     0.2999 O             1 RES     
    2518 O           62.4948    75.0824     0.2999 O             1 RES     
    2519 O           53.0072    91.5154     0.2999 O             1 RES     
    2520 O           71.9824    91.5154     0.2999 O             1 RES     
    2521 O           39.3451    82.0171     4.3521 O             1 RES     
    2522 O           58.3203    82.0171     4.3521 O             1 RES     
    2523 O           48.8327    98.4501     4.3521 O             1 RES     
    2524 O           67.8079    98.4501     4.3521 O             1 RES     
    2525 O           51.6125    75.2303     4.3521 O             1 RES     
    2526 O           42.1249    91.6633     4.3521 O             1 RES     
    2527 O           70.5877    75.2303     4.3521 O             1 RES     
    2528 O           61.1001    91.6633     4.3521 O             1 RES     
    2529 O           41.8688    72.8146     4.3521 O             1 RES     
    2530 O           60.8440    72.8146     4.3521 O             1 RES     
    2531 O           51.3564    89.2477     4.3521 O             1 RES     
    2532 O           70.3316    89.2477     4.3521 O             1 RES     
    2533 O           54.6106    80.3245     1.8073 O             1 RES     
    2534 O           45.1230    96.7575     1.8073 O             1 RES     
    2535 O           73.5858    80.3245     1.8073 O             1 RES     
    2536 O           64.0982    96.7575     1.8073 O             1 RES     
    2537 O           54.9332    72.8639     1.8073 O             1 RES     
    2538 O           45.4456    89.2970     1.8073 O             1 RES     
    2539 O           73.9084    72.8639     1.8073 O             1 RES     
    2540 O           64.4208    89.2970     1.8073 O             1 RES     
    2541 O           42.2578    76.8736     1.8073 O             1 RES     
    2542 O           61.2330    76.8736     1.8073 O             1 RES     
    2543 O           51.7454    93.3066     1.8073 O             1 RES     
    2544 O           70.7206    93.3066     1.8073 O             1 RES     
    2545 O           49.7530    67.5725     5.8595 O             1 RES     
    2546 O           40.2654    84.0055     5.8595 O             1 RES     
    2547 O           68.7282    67.5725     5.8595 O             1 RES     
    2548 O           59.2406    84.0055     5.8595 O             1 RES     
    2549 O           49.4304    75.0331     5.8595 O             1 RES     
    2550 O           39.9428    91.4661     5.8595 O             1 RES     
    2551 O           68.4056    75.0331     5.8595 O             1 RES     
    2552 O           58.9180    91.4661     5.8595 O             1 RES     
    2553 O           43.1306    71.0234     5.8595 O             1 RES     
    2554 O           62.1058    71.0234     5.8595 O             1 RES     
    2555 O           52.6182    87.4565     5.8595 O             1 RES     
    2556 O           71.5934    87.4565     5.8595 O             1 RES     
    2557 O           45.0566    67.5561     2.0666 O             1 RES     
    2558 O           64.0318    67.5561     2.0666 O             1 RES     
    2559 O           54.5442    83.9891     2.0666 O             1 RES     
    2560 O           73.5194    83.9891     2.0666 O             1 RES     
    2561 O           51.7928    70.9741     2.0666 O             1 RES     
    2562 O           42.3052    87.4072     2.0666 O             1 RES     
    2563 O           70.7680    70.9741     2.0666 O             1 RES     
    2564 O           61.2804    87.4072     2.0666 O             1 RES     
    2565 O           45.4646    75.0988     2.0666 O             1 RES     
    2566 O           64.4398    75.0988     2.0666 O             1 RES     
    2567 O           54.9522    91.5318     2.0666 O             1 RES     
    2568 O           73.9274    91.5318     2.0666 O             1 RES     
    2569 O           40.3318    80.3410     6.1188 O             1 RES     
    2570 O           59.3070    80.3410     6.1188 O             1 RES     
    2571 O           49.8194    96.7740     6.1188 O             1 RES     
    2572 O           68.7946    96.7740     6.1188 O             1 RES     
    2573 O           52.5708    76.9229     6.1188 O             1 RES     
    2574 O           43.0832    93.3559     6.1188 O             1 RES     
    2575 O           71.5460    76.9229     6.1188 O             1 RES     
    2576 O           62.0584    93.3559     6.1188 O             1 RES     
    2577 O           39.9238    72.7982     6.1188 O             1 RES     
    2578 O           58.8990    72.7982     6.1188 O             1 RES     
    2579 O           49.4114    89.2312     6.1188 O             1 RES     
    2580 O           68.3866    89.2312     6.1188 O             1 RES     
    2581 O           39.4115    80.9490     2.1396 O             1 RES     
    2582 O           58.3867    80.9490     2.1396 O             1 RES     
    2583 O           48.8991    97.3820     2.1396 O             1 RES     
    2584 O           67.8743    97.3820     2.1396 O             1 RES     
    2585 O           52.5044    75.8219     2.1396 O             1 RES     
    2586 O           43.0168    92.2549     2.1396 O             1 RES     
    2587 O           71.4796    75.8219     2.1396 O             1 RES     
    2588 O           61.9920    92.2549     2.1396 O             1 RES     
    2589 O           40.9105    73.2912     2.1396 O             1 RES     
    2590 O           59.8857    73.2912     2.1396 O             1 RES     
    2591 O           50.3981    89.7242     2.1396 O             1 RES     
    2592 O           69.3733    89.7242     2.1396 O             1 RES     
    2593 O           45.9769    66.9481     6.1918 O             1 RES     
    2594 O           64.9521    66.9481     6.1918 O             1 RES     
    2595 O           55.4645    83.3811     6.1918 O             1 RES     
    2596 O           74.4397    83.3811     6.1918 O             1 RES     
    2597 O           51.8592    72.0752     6.1918 O             1 RES     
    2598 O           42.3716    88.5082     6.1918 O             1 RES     
    2599 O           70.8344    72.0752     6.1918 O             1 RES     
    2600 O           61.3468    88.5082     6.1918 O             1 RES     
    2601 O           44.4779    74.6058     6.1918 O             1 RES     
    2602 O           63.4531    74.6058     6.1918 O             1 RES     
    2603 O           53.9655    91.0389     6.1918 O             1 RES     
    2604 O           72.9407    91.0389     6.1918 O             1 RES     
    2605 O           49.0129    66.9152     2.2530 O             1 RES     
    2606 O           39.5253    83.3482     2.2530 O             1 RES     
    2607 O           67.9881    66.9152     2.2530 O             1 RES     
    2608 O           58.5005    83.3482     2.2530 O             1 RES     
    2609 O           50.3697    74.7209     2.2530 O             1 RES     
    2610 O           40.8821    91.1539     2.2530 O             1 RES     
    2611 O           69.3449    74.7209     2.2530 O             1 RES     
    2612 O           59.8573    91.1539     2.2530 O             1 RES     
    2613 O           42.9314    71.9930     2.2530 O             1 RES     
    2614 O           61.9066    71.9930     2.2530 O             1 RES     
    2615 O           52.4190    88.4260     2.2530 O             1 RES     
    2616 O           71.3942    88.4260     2.2530 O             1 RES     
    2617 O           55.3507    80.9818     6.3052 O             1 RES     
    2618 O           45.8631    97.4149     6.3052 O             1 RES     
    2619 O           74.3259    80.9818     6.3052 O             1 RES     
    2620 O           64.8383    97.4149     6.3052 O             1 RES     
    2621 O           53.9939    73.1762     6.3052 O             1 RES     
    2622 O           44.5063    89.6092     6.3052 O             1 RES     
    2623 O           72.9691    73.1762     6.3052 O             1 RES     
    2624 O           63.4815    89.6092     6.3052 O             1 RES     
    2625 O           42.4570    75.9041     6.3052 O             1 RES     
    2626 O           61.4322    75.9041     6.3052 O             1 RES     
    2627 O           51.9446    92.3371     6.3052 O             1 RES     
    2628 O           70.9198    92.3371     6.3052 O             1 RES     
    2629 O           40.3697    78.3690     2.2692 O             1 RES     
    2630 O           59.3449    78.3690     2.2692 O             1 RES     
    2631 O           49.8573    94.8020     2.2692 O             1 RES     
    2632 O           68.8325    94.8020     2.2692 O             1 RES     
    2633 O           54.2596    77.9417     2.2692 O             1 RES     
    2634 O           44.7720    94.3748     2.2692 O             1 RES     
    2635 O           73.2348    77.9417     2.2692 O             1 RES     
    2636 O           63.7472    94.3748     2.2692 O             1 RES     
    2637 O           38.1971    73.7513     2.2692 O             1 RES     
    2638 O           57.1723    73.7513     2.2692 O             1 RES     
    2639 O           47.6847    90.1843     2.2692 O             1 RES     
    2640 O           66.6599    90.1843     2.2692 O             1 RES     
    2641 O           45.0187    69.5280     6.3214 O             1 RES     
    2642 O           63.9939    69.5280     6.3214 O             1 RES     
    2643 O           54.5063    85.9611     6.3214 O             1 RES     
    2644 O           73.4815    85.9611     6.3214 O             1 RES     
    2645 O           50.1040    69.9553     6.3214 O             1 RES     
    2646 O           40.6164    86.3883     6.3214 O             1 RES     
    2647 O           69.0792    69.9553     6.3214 O             1 RES     
    2648 O           59.5916    86.3883     6.3214 O             1 RES     
    2649 O           47.1913    74.1457     6.3214 O             1 RES     
    2650 O           66.1665    74.1457     6.3214 O             1 RES     
    2651 O           56.6789    90.5787     6.3214 O             1 RES     
    2652 O           75.6541    90.5787     6.3214 O             1 RES     
    2653 O           56.5651    78.7798     2.2692 O             1 RES     
    2654 O           47.0775    95.2128     2.2692 O             1 RES     
    2655 O           75.5403    78.7798     2.2692 O             1 RES     
    2656 O           66.0527    95.2128     2.2692 O             1 RES     
    2657 O           55.2937    75.3289     2.2692 O             1 RES     
    2658 O           45.8061    91.7619     2.2692 O             1 RES     
    2659 O           74.2689    75.3289     2.2692 O             1 RES     
    2660 O           64.7813    91.7619     2.2692 O             1 RES     
    2661 O           39.9428    75.9534     2.2692 O             1 RES     
    2662 O           58.9180    75.9534     2.2692 O             1 RES     
    2663 O           49.4304    92.3864     2.2692 O             1 RES     
    2664 O           68.4056    92.3864     2.2692 O             1 RES     
    2665 O           47.7985    69.1172     6.3214 O             1 RES     
    2666 O           38.3109    85.5502     6.3214 O             1 RES     
    2667 O           66.7737    69.1172     6.3214 O             1 RES     
    2668 O           57.2861    85.5502     6.3214 O             1 RES     
    2669 O           49.0699    72.5682     6.3214 O             1 RES     
    2670 O           39.5823    89.0012     6.3214 O             1 RES     
    2671 O           68.0451    72.5682     6.3214 O             1 RES     
    2672 O           58.5575    89.0012     6.3214 O             1 RES     
    2673 O           45.4456    71.9437     6.3214 O             1 RES     
    2674 O           64.4208    71.9437     6.3214 O             1 RES     
    2675 O           54.9332    88.3767     6.3214 O             1 RES     
    2676 O           73.9084    88.3767     6.3214 O             1 RES     
    2677 O           39.1174    79.2893     7.9828 O             1 RES     
    2678 O           58.0926    79.2893     7.9828 O             1 RES     
    2679 O           48.6050    95.7223     7.9828 O             1 RES     
    2680 O           67.5802    95.7223     7.9828 O             1 RES     
    2681 O           54.0888    76.3970     7.9828 O             1 RES     
    2682 O           44.6012    92.8300     7.9828 O             1 RES     
    2683 O           73.0640    76.3970     7.9828 O             1 RES     
    2684 O           63.5764    92.8300     7.9828 O             1 RES     
    2685 O           39.6202    74.3758     7.9828 O             1 RES     
    2686 O           58.5954    74.3758     7.9828 O             1 RES     
    2687 O           49.1078    90.8088     7.9828 O             1 RES     
    2688 O           68.0830    90.8088     7.9828 O             1 RES     
    2689 O           46.2710    68.6078     3.9306 O             1 RES     
    2690 O           65.2462    68.6078     3.9306 O             1 RES     
    2691 O           55.7586    85.0408     3.9306 O             1 RES     
    2692 O           74.7338    85.0408     3.9306 O             1 RES     
    2693 O           50.2748    71.5000     3.9306 O             1 RES     
    2694 O           40.7872    87.9330     3.9306 O             1 RES     
    2695 O           69.2500    71.5000     3.9306 O             1 RES     
    2696 O           59.7624    87.9330     3.9306 O             1 RES     
    2697 O           45.7682    73.5213     3.9306 O             1 RES     
    2698 O           64.7434    73.5213     3.9306 O             1 RES     
    2699 O           55.2558    89.9543     3.9306 O             1 RES     
    2700 O           74.2310    89.9543     3.9306 O             1 RES     
    2701 O           54.9332    79.4043     4.0522 O             1 RES     
    2702 O           45.4456    95.8373     4.0522 O             1 RES     
    2703 O           73.9084    79.4043     4.0522 O             1 RES     
    2704 O           64.4208    95.8373     4.0522 O             1 RES     
    2705 O           55.5689    73.6034     4.0522 O             1 RES     
    2706 O           46.0813    90.0364     4.0522 O             1 RES     
    2707 O           74.5441    73.6034     4.0522 O             1 RES     
    2708 O           65.0565    90.0364     4.0522 O             1 RES     
    2709 O           41.2995    77.0544     4.0522 O             1 RES     
    2710 O           60.2747    77.0544     4.0522 O             1 RES     
    2711 O           50.7871    93.4874     4.0522 O             1 RES     
    2712 O           69.7623    93.4874     4.0522 O             1 RES     
    2713 O           49.4304    68.4928     0.0000 O             1 RES     
    2714 O           49.4304    68.4928     8.1044 O             1 RES     
    2715 O           39.9428    84.9258     0.0000 O             1 RES     
    2716 O           39.9428    84.9258     8.1044 O             1 RES     
    2717 O           68.4056    68.4928     0.0000 O             1 RES     
    2718 O           68.4056    68.4928     8.1044 O             1 RES     
    2719 O           58.9180    84.9258     0.0000 O             1 RES     
    2720 O           58.9180    84.9258     8.1044 O             1 RES     
    2721 O           48.7947    74.2936     0.0000 O             1 RES     
    2722 O           48.7947    74.2936     8.1044 O             1 RES     
    2723 O           39.3071    90.7266     0.0000 O             1 RES     
    2724 O           39.3071    90.7266     8.1044 O             1 RES     
    2725 O           67.7699    74.2936     0.0000 O             1 RES     
    2726 O           67.7699    74.2936     8.1044 O             1 RES     
    2727 O           58.2823    90.7266     0.0000 O             1 RES     
    2728 O           58.2823    90.7266     8.1044 O             1 RES     
    2729 O           44.0889    70.8427     0.0000 O             1 RES     
    2730 O           44.0889    70.8427     8.1044 O             1 RES     
    2731 O           63.0641    70.8427     0.0000 O             1 RES     
    2732 O           63.0641    70.8427     8.1044 O             1 RES     
    2733 O           53.5765    87.2757     0.0000 O             1 RES     
    2734 O           53.5765    87.2757     8.1044 O             1 RES     
    2735 O           72.5517    87.2757     0.0000 O             1 RES     
    2736 O           72.5517    87.2757     8.1044 O             1 RES     
    2737 O           47.0111    68.9365     1.6047 O             1 RES     
    2738 O           65.9863    68.9365     1.6047 O             1 RES     
    2739 O           56.4987    85.3695     1.6047 O             1 RES     
    2740 O           75.4739    85.3695     1.6047 O             1 RES     
    2741 O           49.6201    71.9766     1.6047 O             1 RES     
    2742 O           40.1325    88.4096     1.6047 O             1 RES     
    2743 O           68.5953    71.9766     1.6047 O             1 RES     
    2744 O           59.1077    88.4096     1.6047 O             1 RES     
    2745 O           45.6828    72.7160     1.6047 O             1 RES     
    2746 O           64.6580    72.7160     1.6047 O             1 RES     
    2747 O           55.1704    89.1491     1.6047 O             1 RES     
    2748 O           74.1456    89.1491     1.6047 O             1 RES     
    2749 O           38.3773    78.9606     5.6569 O             1 RES     
    2750 O           57.3525    78.9606     5.6569 O             1 RES     
    2751 O           47.8649    95.3936     5.6569 O             1 RES     
    2752 O           66.8401    95.3936     5.6569 O             1 RES     
    2753 O           54.7435    75.9205     5.6569 O             1 RES     
    2754 O           45.2559    92.3535     5.6569 O             1 RES     
    2755 O           73.7187    75.9205     5.6569 O             1 RES     
    2756 O           64.2311    92.3535     5.6569 O             1 RES     
    2757 O           39.7056    75.1810     5.6569 O             1 RES     
    2758 O           58.6808    75.1810     5.6569 O             1 RES     
    2759 O           49.1932    91.6140     5.6569 O             1 RES     
    2760 O           68.1684    91.6140     5.6569 O             1 RES     
    2761 O           49.7340    69.6102     2.5529 O             1 RES     
    2762 O           40.2464    86.0432     2.5529 O             1 RES     
    2763 O           68.7092    69.6102     2.5529 O             1 RES     
    2764 O           59.2216    86.0432     2.5529 O             1 RES     
    2765 O           47.6752    73.9978     2.5529 O             1 RES     
    2766 O           38.1876    90.4308     2.5529 O             1 RES     
    2767 O           66.6504    73.9978     2.5529 O             1 RES     
    2768 O           57.1628    90.4308     2.5529 O             1 RES     
    2769 O           44.9048    70.0210     2.5529 O             1 RES     
    2770 O           63.8800    70.0210     2.5529 O             1 RES     
    2771 O           54.3924    86.4540     2.5529 O             1 RES     
    2772 O           73.3676    86.4540     2.5529 O             1 RES     
    2773 O           54.6296    78.2868     6.6051 O             1 RES     
    2774 O           45.1420    94.7198     6.6051 O             1 RES     
    2775 O           73.6048    78.2868     6.6051 O             1 RES     
    2776 O           64.1172    94.7198     6.6051 O             1 RES     
    2777 O           56.6884    73.8992     6.6051 O             1 RES     
    2778 O           47.2008    90.3322     6.6051 O             1 RES     
    2779 O           75.6636    73.8992     6.6051 O             1 RES     
    2780 O           66.1760    90.3322     6.6051 O             1 RES     
    2781 O           40.4836    77.8760     6.6051 O             1 RES     
    2782 O           59.4588    77.8760     6.6051 O             1 RES     
    2783 O           49.9712    94.3090     6.6051 O             1 RES     
    2784 O           68.9464    94.3090     6.6051 O             1 RES     
    2785 O           39.1174    79.2893    -0.1216 O             1 RES     
    2786 O           58.0926    79.2893    -0.1216 O             1 RES     
    2787 O           48.6050    95.7223    -0.1216 O             1 RES     
    2788 O           67.5802    95.7223    -0.1216 O             1 RES     
    2789 O           54.0888    76.3970    -0.1216 O             1 RES     
    2790 O           44.6012    92.8300    -0.1216 O             1 RES     
    2791 O           73.0640    76.3970    -0.1216 O             1 RES     
    2792 O           63.5764    92.8300    -0.1216 O             1 RES     
    2793 O           39.6202    74.3758    -0.1216 O             1 RES     
    2794 O           58.5954    74.3758    -0.1216 O             1 RES     
    2795 O           49.1078    90.8088    -0.1216 O             1 RES     
    2796 O           68.0830    90.8088    -0.1216 O             1 RES     
    2797 O           46.0433    65.8799     8.4043 O             1 RES     
    2798 O           65.0185    65.8799     8.4043 O             1 RES     
    2799 O           55.5309    82.3129     8.4043 O             1 RES     
    2800 O           74.5061    82.3129     8.4043 O             1 RES     
    2801 O           52.7511    72.6667     8.4043 O             1 RES     
    2802 O           43.2635    89.0998     8.4043 O             1 RES     
    2803 O           71.7263    72.6667     8.4043 O             1 RES     
    2804 O           62.2387    89.0998     8.4043 O             1 RES     
    2805 O           43.5196    75.0824     8.4043 O             1 RES     
    2806 O           62.4948    75.0824     8.4043 O             1 RES     
    2807 O           53.0072    91.5154     8.4043 O             1 RES     
    2808 O           71.9824    91.5154     8.4043 O             1 RES     
    2809 Al          92.7033    16.4166     1.9370 Al            1 RES     
    2810 Al          83.2157    32.8496     1.9370 Al            1 RES     
    2811 Al         111.6785    16.4166     1.9370 Al            1 RES     
    2812 Al         102.1909    32.8496     1.9370 Al            1 RES     
    2813 Al          91.2328     6.3431     1.9370 Al            1 RES     
    2814 Al          81.7452    22.7761     1.9370 Al            1 RES     
    2815 Al         110.2080     6.3431     1.9370 Al            1 RES     
    2816 Al         100.7204    22.7761     1.9370 Al            1 RES     
    2817 Al          81.7167    10.1063     1.9370 Al            1 RES     
    2818 Al         100.6919    10.1063     1.9370 Al            1 RES     
    2819 Al          91.2043    26.5393     1.9370 Al            1 RES     
    2820 Al         110.1795    26.5393     1.9370 Al            1 RES     
    2821 Al          87.5611     0.0164     5.9892 Al            1 RES     
    2822 Al          78.0735    16.4494     5.9892 Al            1 RES     
    2823 Al         106.5363     0.0164     5.9892 Al            1 RES     
    2824 Al          97.0487    16.4494     5.9892 Al            1 RES     
    2825 Al          89.0316    10.0899     5.9892 Al            1 RES     
    2826 Al          79.5440    26.5229     5.9892 Al            1 RES     
    2827 Al         108.0068    10.0899     5.9892 Al            1 RES     
    2828 Al          98.5192    26.5229     5.9892 Al            1 RES     
    2829 Al          79.5725     6.3267     5.9892 Al            1 RES     
    2830 Al          98.5477     6.3267     5.9892 Al            1 RES     
    2831 Al          89.0601    22.7597     5.9892 Al            1 RES     
    2832 Al         108.0353    22.7597     5.9892 Al            1 RES     
    2833 Al          77.0488    13.5901     1.6533 Al            1 RES     
    2834 Al          96.0240    13.5901     1.6533 Al            1 RES     
    2835 Al          86.5364    30.0231     1.6533 Al            1 RES     
    2836 Al         105.5116    30.0231     1.6533 Al            1 RES     
    2837 Al          92.0202    10.6322     1.6533 Al            1 RES     
    2838 Al          82.5326    27.0652     1.6533 Al            1 RES     
    2839 Al         110.9954    10.6322     1.6533 Al            1 RES     
    2840 Al         101.5078    27.0652     1.6533 Al            1 RES     
    2841 Al          77.6086     8.6438     1.6533 Al            1 RES     
    2842 Al          96.5838     8.6438     1.6533 Al            1 RES     
    2843 Al          87.0962    25.0768     1.6533 Al            1 RES     
    2844 Al         106.0714    25.0768     1.6533 Al            1 RES     
    2845 Al          84.2404     2.8429     5.7055 Al            1 RES     
    2846 Al         103.2156     2.8429     5.7055 Al            1 RES     
    2847 Al          93.7280    19.2759     5.7055 Al            1 RES     
    2848 Al         112.7032    19.2759     5.7055 Al            1 RES     
    2849 Al          88.2442     5.8009     5.7055 Al            1 RES     
    2850 Al          78.7566    22.2339     5.7055 Al            1 RES     
    2851 Al         107.2194     5.8009     5.7055 Al            1 RES     
    2852 Al          97.7318    22.2339     5.7055 Al            1 RES     
    2853 Al          83.6806     7.7892     5.7055 Al            1 RES     
    2854 Al         102.6558     7.7892     5.7055 Al            1 RES     
    2855 Al          93.1682    24.2223     5.7055 Al            1 RES     
    2856 Al         112.1434    24.2223     5.7055 Al            1 RES     
    2857 Al          86.7072     2.7772     1.6047 Al            1 RES     
    2858 Al          77.2196    19.2102     1.6047 Al            1 RES     
    2859 Al         105.6824     2.7772     1.6047 Al            1 RES     
    2860 Al          96.1948    19.2102     1.6047 Al            1 RES     
    2861 Al          87.0677     7.9700     1.6047 Al            1 RES     
    2862 Al          77.5801    24.4030     1.6047 Al            1 RES     
    2863 Al         106.0429     7.9700     1.6047 Al            1 RES     
    2864 Al          96.5553    24.4030     1.6047 Al            1 RES     
    2865 Al          82.3903     5.6858     1.6047 Al            1 RES     
    2866 Al         101.3655     5.6858     1.6047 Al            1 RES     
    2867 Al          91.8779    22.1188     1.6047 Al            1 RES     
    2868 Al         110.8531    22.1188     1.6047 Al            1 RES     
    2869 Al          93.5572    13.6558     5.6569 Al            1 RES     
    2870 Al          84.0696    30.0888     5.6569 Al            1 RES     
    2871 Al         112.5324    13.6558     5.6569 Al            1 RES     
    2872 Al         103.0448    30.0888     5.6569 Al            1 RES     
    2873 Al          93.1967     8.4630     5.6569 Al            1 RES     
    2874 Al          83.7091    24.8960     5.6569 Al            1 RES     
    2875 Al         112.1719     8.4630     5.6569 Al            1 RES     
    2876 Al         102.6843    24.8960     5.6569 Al            1 RES     
    2877 Al          78.8989    10.7472     5.6569 Al            1 RES     
    2878 Al          97.8741    10.7472     5.6569 Al            1 RES     
    2879 Al          88.3865    27.1802     5.6569 Al            1 RES     
    2880 Al         107.3617    27.1802     5.6569 Al            1 RES     
    2881 P           76.8590    16.4166     2.9014 P             1 RES     
    2882 P           95.8342    16.4166     2.9014 P             1 RES     
    2883 P           86.3466    32.8496     2.9014 P             1 RES     
    2884 P          105.3218    32.8496     2.9014 P             1 RES     
    2885 P           89.6673     9.0546     2.9014 P             1 RES     
    2886 P           80.1797    25.4876     2.9014 P             1 RES     
    2887 P          108.6425     9.0546     2.9014 P             1 RES     
    2888 P           99.1549    25.4876     2.9014 P             1 RES     
    2889 P           80.1512     7.3949     2.9014 P             1 RES     
    2890 P           99.1264     7.3949     2.9014 P             1 RES     
    2891 P           89.6388    23.8279     2.9014 P             1 RES     
    2892 P          108.6140    23.8279     2.9014 P             1 RES     
    2893 P           84.4302     0.0164     6.9536 P             1 RES     
    2894 P          103.4054     0.0164     6.9536 P             1 RES     
    2895 P           93.9178    16.4494     6.9536 P             1 RES     
    2896 P          112.8930    16.4494     6.9536 P             1 RES     
    2897 P           90.5971     7.3784     6.9536 P             1 RES     
    2898 P           81.1095    23.8114     6.9536 P             1 RES     
    2899 P          109.5723     7.3784     6.9536 P             1 RES     
    2900 P          100.0847    23.8114     6.9536 P             1 RES     
    2901 P           81.1380     9.0382     6.9536 P             1 RES     
    2902 P          100.1132     9.0382     6.9536 P             1 RES     
    2903 P           90.6256    25.4712     6.9536 P             1 RES     
    2904 P          109.6008    25.4712     6.9536 P             1 RES     
    2905 P           93.0449    13.3929     2.5934 P             1 RES     
    2906 P           83.5573    29.8259     2.5934 P             1 RES     
    2907 P          112.0201    13.3929     2.5934 P             1 RES     
    2908 P          102.5325    29.8259     2.5934 P             1 RES     
    2909 P           93.6806     8.1508     2.5934 P             1 RES     
    2910 P           84.1930    24.5838     2.5934 P             1 RES     
    2911 P          112.6558     8.1508     2.5934 P             1 RES     
    2912 P          103.1682    24.5838     2.5934 P             1 RES     
    2913 P           78.9273    11.3223     2.5934 P             1 RES     
    2914 P           97.9025    11.3223     2.5934 P             1 RES     
    2915 P           88.4149    27.7553     2.5934 P             1 RES     
    2916 P          107.3901    27.7553     2.5934 P             1 RES     
    2917 P           87.2195     3.0401     6.6456 P             1 RES     
    2918 P           77.7319    19.4731     6.6456 P             1 RES     
    2919 P          106.1947     3.0401     6.6456 P             1 RES     
    2920 P           96.7071    19.4731     6.6456 P             1 RES     
    2921 P           86.5838     8.2822     6.6456 P             1 RES     
    2922 P           77.0962    24.7152     6.6456 P             1 RES     
    2923 P          105.5590     8.2822     6.6456 P             1 RES     
    2924 P           96.0714    24.7152     6.6456 P             1 RES     
    2925 P           82.3619     5.1107     6.6456 P             1 RES     
    2926 P          101.3371     5.1107     6.6456 P             1 RES     
    2927 P           91.8495    21.5437     6.6456 P             1 RES     
    2928 P          110.8247    21.5437     6.6456 P             1 RES     
    2929 P           83.7660     3.0401     2.5043 P             1 RES     
    2930 P          102.7412     3.0401     2.5043 P             1 RES     
    2931 P           93.2536    19.4731     2.5043 P             1 RES     
    2932 P          112.2288    19.4731     2.5043 P             1 RES     
    2933 P           88.3106     5.2914     2.5043 P             1 RES     
    2934 P           78.8230    21.7244     2.5043 P             1 RES     
    2935 P          107.2858     5.2914     2.5043 P             1 RES     
    2936 P           97.7982    21.7244     2.5043 P             1 RES     
    2937 P           84.0886     8.1015     2.5043 P             1 RES     
    2938 P          103.0638     8.1015     2.5043 P             1 RES     
    2939 P           93.5762    24.5345     2.5043 P             1 RES     
    2940 P          112.5514    24.5345     2.5043 P             1 RES     
    2941 P           77.5232    13.3929     6.5565 P             1 RES     
    2942 P           96.4984    13.3929     6.5565 P             1 RES     
    2943 P           87.0108    29.8259     6.5565 P             1 RES     
    2944 P          105.9860    29.8259     6.5565 P             1 RES     
    2945 P           91.9538    11.1416     6.5565 P             1 RES     
    2946 P           82.4662    27.5746     6.5565 P             1 RES     
    2947 P          110.9290    11.1416     6.5565 P             1 RES     
    2948 P          101.4414    27.5746     6.5565 P             1 RES     
    2949 P           77.2006     8.3315     6.5565 P             1 RES     
    2950 P           96.1758     8.3315     6.5565 P             1 RES     
    2951 P           86.6882    24.7645     6.5565 P             1 RES     
    2952 P          105.6634    24.7645     6.5565 P             1 RES     
    2953 O           84.8097     0.0164     2.7474 O             1 RES     
    2954 O          103.7849     0.0164     2.7474 O             1 RES     
    2955 O           94.2973    16.4494     2.7474 O             1 RES     
    2956 O          113.2725    16.4494     2.7474 O             1 RES     
    2957 O           90.4073     7.7071     2.7474 O             1 RES     
    2958 O           80.9197    24.1401     2.7474 O             1 RES     
    2959 O          109.3825     7.7071     2.7474 O             1 RES     
    2960 O           99.8949    24.1401     2.7474 O             1 RES     
    2961 O           80.9482     8.7095     2.7474 O             1 RES     
    2962 O           99.9234     8.7095     2.7474 O             1 RES     
    2963 O           90.4358    25.1425     2.7474 O             1 RES     
    2964 O          109.4110    25.1425     2.7474 O             1 RES     
    2965 O           76.4795    16.4166     6.7996 O             1 RES     
    2966 O           95.4547    16.4166     6.7996 O             1 RES     
    2967 O           85.9671    32.8496     6.7996 O             1 RES     
    2968 O          104.9423    32.8496     6.7996 O             1 RES     
    2969 O           89.8571     8.7259     6.7996 O             1 RES     
    2970 O           80.3695    25.1589     6.7996 O             1 RES     
    2971 O          108.8323     8.7259     6.7996 O             1 RES     
    2972 O           99.3447    25.1589     6.7996 O             1 RES     
    2973 O           80.3410     7.7235     6.7996 O             1 RES     
    2974 O           99.3162     7.7235     6.7996 O             1 RES     
    2975 O           89.8286    24.1565     6.7996 O             1 RES     
    2976 O          108.8038    24.1565     6.7996 O             1 RES     
    2977 O           83.9937     0.1479     0.2999 O             1 RES     
    2978 O          102.9689     0.1479     0.2999 O             1 RES     
    2979 O           93.4813    16.5809     0.2999 O             1 RES     
    2980 O          112.4565    16.5809     0.2999 O             1 RES     
    2981 O           90.7015     6.9347     0.2999 O             1 RES     
    2982 O           81.2139    23.3677     0.2999 O             1 RES     
    2983 O          109.6767     6.9347     0.2999 O             1 RES     
    2984 O          100.1891    23.3677     0.2999 O             1 RES     
    2985 O           81.4700     9.3504     0.2999 O             1 RES     
    2986 O          100.4452     9.3504     0.2999 O             1 RES     
    2987 O           90.9576    25.7834     0.2999 O             1 RES     
    2988 O          109.9328    25.7834     0.2999 O             1 RES     
    2989 O           77.2955    16.2851     4.3521 O             1 RES     
    2990 O           96.2707    16.2851     4.3521 O             1 RES     
    2991 O           86.7831    32.7181     4.3521 O             1 RES     
    2992 O          105.7583    32.7181     4.3521 O             1 RES     
    2993 O           89.5629     9.4983     4.3521 O             1 RES     
    2994 O           80.0753    25.9313     4.3521 O             1 RES     
    2995 O          108.5381     9.4983     4.3521 O             1 RES     
    2996 O           99.0505    25.9313     4.3521 O             1 RES     
    2997 O           79.8192     7.0826     4.3521 O             1 RES     
    2998 O           98.7944     7.0826     4.3521 O             1 RES     
    2999 O           89.3068    23.5156     4.3521 O             1 RES     
    3000 O          108.2820    23.5156     4.3521 O             1 RES     
    3001 O           92.5610    14.5925     1.8073 O             1 RES     
    3002 O           83.0734    31.0255     1.8073 O             1 RES     
    3003 O          111.5362    14.5925     1.8073 O             1 RES     
    3004 O          102.0486    31.0255     1.8073 O             1 RES     
    3005 O           92.8836     7.1319     1.8073 O             1 RES     
    3006 O           83.3960    23.5649     1.8073 O             1 RES     
    3007 O          111.8588     7.1319     1.8073 O             1 RES     
    3008 O          102.3712    23.5649     1.8073 O             1 RES     
    3009 O           80.2082    11.1416     1.8073 O             1 RES     
    3010 O           99.1834    11.1416     1.8073 O             1 RES     
    3011 O           89.6958    27.5746     1.8073 O             1 RES     
    3012 O          108.6710    27.5746     1.8073 O             1 RES     
    3013 O           87.7034     1.8405     5.8595 O             1 RES     
    3014 O           78.2158    18.2735     5.8595 O             1 RES     
    3015 O          106.6786     1.8405     5.8595 O             1 RES     
    3016 O           97.1910    18.2735     5.8595 O             1 RES     
    3017 O           87.3808     9.3011     5.8595 O             1 RES     
    3018 O           77.8932    25.7341     5.8595 O             1 RES     
    3019 O          106.3560     9.3011     5.8595 O             1 RES     
    3020 O           96.8684    25.7341     5.8595 O             1 RES     
    3021 O           81.0810     5.2914     5.8595 O             1 RES     
    3022 O          100.0562     5.2914     5.8595 O             1 RES     
    3023 O           90.5686    21.7244     5.8595 O             1 RES     
    3024 O          109.5438    21.7244     5.8595 O             1 RES     
    3025 O           83.0070     1.8241     2.0666 O             1 RES     
    3026 O          101.9822     1.8241     2.0666 O             1 RES     
    3027 O           92.4946    18.2571     2.0666 O             1 RES     
    3028 O          111.4698    18.2571     2.0666 O             1 RES     
    3029 O           89.7432     5.2421     2.0666 O             1 RES     
    3030 O           80.2556    21.6751     2.0666 O             1 RES     
    3031 O          108.7184     5.2421     2.0666 O             1 RES     
    3032 O           99.2308    21.6751     2.0666 O             1 RES     
    3033 O           83.4150     9.3668     2.0666 O             1 RES     
    3034 O          102.3902     9.3668     2.0666 O             1 RES     
    3035 O           92.9026    25.7998     2.0666 O             1 RES     
    3036 O          111.8778    25.7998     2.0666 O             1 RES     
    3037 O           78.2822    14.6089     6.1188 O             1 RES     
    3038 O           97.2574    14.6089     6.1188 O             1 RES     
    3039 O           87.7698    31.0420     6.1188 O             1 RES     
    3040 O          106.7450    31.0420     6.1188 O             1 RES     
    3041 O           90.5212    11.1909     6.1188 O             1 RES     
    3042 O           81.0336    27.6239     6.1188 O             1 RES     
    3043 O          109.4964    11.1909     6.1188 O             1 RES     
    3044 O          100.0088    27.6239     6.1188 O             1 RES     
    3045 O           77.8742     7.0662     6.1188 O             1 RES     
    3046 O           96.8494     7.0662     6.1188 O             1 RES     
    3047 O           87.3618    23.4992     6.1188 O             1 RES     
    3048 O          106.3370    23.4992     6.1188 O             1 RES     
    3049 O           77.3619    15.2170     2.1396 O             1 RES     
    3050 O           96.3371    15.2170     2.1396 O             1 RES     
    3051 O           86.8495    31.6500     2.1396 O             1 RES     
    3052 O          105.8247    31.6500     2.1396 O             1 RES     
    3053 O           90.4548    10.0899     2.1396 O             1 RES     
    3054 O           80.9672    26.5229     2.1396 O             1 RES     
    3055 O          109.4300    10.0899     2.1396 O             1 RES     
    3056 O           99.9424    26.5229     2.1396 O             1 RES     
    3057 O           78.8609     7.5592     2.1396 O             1 RES     
    3058 O           97.8361     7.5592     2.1396 O             1 RES     
    3059 O           88.3485    23.9922     2.1396 O             1 RES     
    3060 O          107.3237    23.9922     2.1396 O             1 RES     
    3061 O           83.9273     1.2160     6.1918 O             1 RES     
    3062 O          102.9025     1.2160     6.1918 O             1 RES     
    3063 O           93.4149    17.6490     6.1918 O             1 RES     
    3064 O          112.3901    17.6490     6.1918 O             1 RES     
    3065 O           89.8096     6.3431     6.1918 O             1 RES     
    3066 O           80.3220    22.7761     6.1918 O             1 RES     
    3067 O          108.7848     6.3431     6.1918 O             1 RES     
    3068 O           99.2972    22.7761     6.1918 O             1 RES     
    3069 O           82.4283     8.8738     6.1918 O             1 RES     
    3070 O          101.4035     8.8738     6.1918 O             1 RES     
    3071 O           91.9159    25.3068     6.1918 O             1 RES     
    3072 O          110.8911    25.3068     6.1918 O             1 RES     
    3073 O           86.9633     1.1832     2.2530 O             1 RES     
    3074 O           77.4757    17.6162     2.2530 O             1 RES     
    3075 O          105.9385     1.1832     2.2530 O             1 RES     
    3076 O           96.4509    17.6162     2.2530 O             1 RES     
    3077 O           88.3201     8.9889     2.2530 O             1 RES     
    3078 O           78.8325    25.4219     2.2530 O             1 RES     
    3079 O          107.2953     8.9889     2.2530 O             1 RES     
    3080 O           97.8077    25.4219     2.2530 O             1 RES     
    3081 O           80.8818     6.2610     2.2530 O             1 RES     
    3082 O           99.8570     6.2610     2.2530 O             1 RES     
    3083 O           90.3694    22.6940     2.2530 O             1 RES     
    3084 O          109.3446    22.6940     2.2530 O             1 RES     
    3085 O           93.3011    15.2498     6.3052 O             1 RES     
    3086 O           83.8135    31.6828     6.3052 O             1 RES     
    3087 O          112.2763    15.2498     6.3052 O             1 RES     
    3088 O          102.7887    31.6828     6.3052 O             1 RES     
    3089 O           91.9443     7.4442     6.3052 O             1 RES     
    3090 O           82.4567    23.8772     6.3052 O             1 RES     
    3091 O          110.9195     7.4442     6.3052 O             1 RES     
    3092 O          101.4319    23.8772     6.3052 O             1 RES     
    3093 O           80.4074    10.1720     6.3052 O             1 RES     
    3094 O           99.3826    10.1720     6.3052 O             1 RES     
    3095 O           89.8950    26.6050     6.3052 O             1 RES     
    3096 O          108.8702    26.6050     6.3052 O             1 RES     
    3097 O           78.3201    12.6370     2.2692 O             1 RES     
    3098 O           97.2953    12.6370     2.2692 O             1 RES     
    3099 O           87.8077    29.0700     2.2692 O             1 RES     
    3100 O          106.7829    29.0700     2.2692 O             1 RES     
    3101 O           92.2100    12.2097     2.2692 O             1 RES     
    3102 O           82.7224    28.6427     2.2692 O             1 RES     
    3103 O          111.1852    12.2097     2.2692 O             1 RES     
    3104 O          101.6976    28.6427     2.2692 O             1 RES     
    3105 O           76.1475     8.0193     2.2692 O             1 RES     
    3106 O           95.1227     8.0193     2.2692 O             1 RES     
    3107 O           85.6351    24.4523     2.2692 O             1 RES     
    3108 O          104.6103    24.4523     2.2692 O             1 RES     
    3109 O           82.9691     3.7960     6.3214 O             1 RES     
    3110 O          101.9443     3.7960     6.3214 O             1 RES     
    3111 O           92.4567    20.2290     6.3214 O             1 RES     
    3112 O          111.4319    20.2290     6.3214 O             1 RES     
    3113 O           88.0544     4.2233     6.3214 O             1 RES     
    3114 O           78.5668    20.6563     6.3214 O             1 RES     
    3115 O          107.0296     4.2233     6.3214 O             1 RES     
    3116 O           97.5420    20.6563     6.3214 O             1 RES     
    3117 O           85.1417     8.4137     6.3214 O             1 RES     
    3118 O          104.1169     8.4137     6.3214 O             1 RES     
    3119 O           94.6293    24.8467     6.3214 O             1 RES     
    3120 O          113.6045    24.8467     6.3214 O             1 RES     
    3121 O           94.5155    13.0478     2.2692 O             1 RES     
    3122 O           85.0279    29.4808     2.2692 O             1 RES     
    3123 O          113.4907    13.0478     2.2692 O             1 RES     
    3124 O          104.0031    29.4808     2.2692 O             1 RES     
    3125 O           93.2441     9.5969     2.2692 O             1 RES     
    3126 O           83.7565    26.0299     2.2692 O             1 RES     
    3127 O          112.2193     9.5969     2.2692 O             1 RES     
    3128 O          102.7317    26.0299     2.2692 O             1 RES     
    3129 O           77.8932    10.2213     2.2692 O             1 RES     
    3130 O           96.8684    10.2213     2.2692 O             1 RES     
    3131 O           87.3808    26.6543     2.2692 O             1 RES     
    3132 O          106.3560    26.6543     2.2692 O             1 RES     
    3133 O           85.7489     3.3852     6.3214 O             1 RES     
    3134 O           76.2613    19.8182     6.3214 O             1 RES     
    3135 O          104.7241     3.3852     6.3214 O             1 RES     
    3136 O           95.2365    19.8182     6.3214 O             1 RES     
    3137 O           87.0203     6.8361     6.3214 O             1 RES     
    3138 O           77.5327    23.2691     6.3214 O             1 RES     
    3139 O          105.9955     6.8361     6.3214 O             1 RES     
    3140 O           96.5079    23.2691     6.3214 O             1 RES     
    3141 O           83.3960     6.2117     6.3214 O             1 RES     
    3142 O          102.3712     6.2117     6.3214 O             1 RES     
    3143 O           92.8836    22.6447     6.3214 O             1 RES     
    3144 O          111.8588    22.6447     6.3214 O             1 RES     
    3145 O           77.0678    13.5572     7.9828 O             1 RES     
    3146 O           96.0430    13.5572     7.9828 O             1 RES     
    3147 O           86.5554    29.9902     7.9828 O             1 RES     
    3148 O          105.5306    29.9902     7.9828 O             1 RES     
    3149 O           92.0392    10.6650     7.9828 O             1 RES     
    3150 O           82.5516    27.0980     7.9828 O             1 RES     
    3151 O          111.0144    10.6650     7.9828 O             1 RES     
    3152 O          101.5268    27.0980     7.9828 O             1 RES     
    3153 O           77.5706     8.6438     7.9828 O             1 RES     
    3154 O           96.5458     8.6438     7.9828 O             1 RES     
    3155 O           87.0582    25.0768     7.9828 O             1 RES     
    3156 O          106.0334    25.0768     7.9828 O             1 RES     
    3157 O           84.2214     2.8758     3.9306 O             1 RES     
    3158 O          103.1966     2.8758     3.9306 O             1 RES     
    3159 O           93.7090    19.3088     3.9306 O             1 RES     
    3160 O          112.6842    19.3088     3.9306 O             1 RES     
    3161 O           88.2252     5.7680     3.9306 O             1 RES     
    3162 O           78.7376    22.2010     3.9306 O             1 RES     
    3163 O          107.2004     5.7680     3.9306 O             1 RES     
    3164 O           97.7128    22.2010     3.9306 O             1 RES     
    3165 O           83.7186     7.7892     3.9306 O             1 RES     
    3166 O          102.6938     7.7892     3.9306 O             1 RES     
    3167 O           93.2062    24.2223     3.9306 O             1 RES     
    3168 O          112.1814    24.2223     3.9306 O             1 RES     
    3169 O           92.8836    13.6723     4.0522 O             1 RES     
    3170 O           83.3960    30.1053     4.0522 O             1 RES     
    3171 O          111.8588    13.6723     4.0522 O             1 RES     
    3172 O          102.3712    30.1053     4.0522 O             1 RES     
    3173 O           93.5193     7.8714     4.0522 O             1 RES     
    3174 O           84.0317    24.3044     4.0522 O             1 RES     
    3175 O          112.4945     7.8714     4.0522 O             1 RES     
    3176 O          103.0069    24.3044     4.0522 O             1 RES     
    3177 O           79.2499    11.3223     4.0522 O             1 RES     
    3178 O           98.2251    11.3223     4.0522 O             1 RES     
    3179 O           88.7375    27.7553     4.0522 O             1 RES     
    3180 O          107.7127    27.7553     4.0522 O             1 RES     
    3181 O           87.3808     2.7607     0.0000 O             1 RES     
    3182 O           87.3808     2.7607     8.1044 O             1 RES     
    3183 O           77.8932    19.1938     0.0000 O             1 RES     
    3184 O           77.8932    19.1938     8.1044 O             1 RES     
    3185 O          106.3560     2.7607     0.0000 O             1 RES     
    3186 O          106.3560     2.7607     8.1044 O             1 RES     
    3187 O           96.8684    19.1938     0.0000 O             1 RES     
    3188 O           96.8684    19.1938     8.1044 O             1 RES     
    3189 O           86.7451     8.5616     0.0000 O             1 RES     
    3190 O           86.7451     8.5616     8.1044 O             1 RES     
    3191 O           77.2575    24.9946     0.0000 O             1 RES     
    3192 O           77.2575    24.9946     8.1044 O             1 RES     
    3193 O          105.7203     8.5616     0.0000 O             1 RES     
    3194 O          105.7203     8.5616     8.1044 O             1 RES     
    3195 O           96.2327    24.9946     0.0000 O             1 RES     
    3196 O           96.2327    24.9946     8.1044 O             1 RES     
    3197 O           82.0393     5.1107     0.0000 O             1 RES     
    3198 O           82.0393     5.1107     8.1044 O             1 RES     
    3199 O          101.0145     5.1107     0.0000 O             1 RES     
    3200 O          101.0145     5.1107     8.1044 O             1 RES     
    3201 O           91.5269    21.5437     0.0000 O             1 RES     
    3202 O           91.5269    21.5437     8.1044 O             1 RES     
    3203 O          110.5021    21.5437     0.0000 O             1 RES     
    3204 O          110.5021    21.5437     8.1044 O             1 RES     
    3205 O           84.9615     3.2044     1.6047 O             1 RES     
    3206 O          103.9367     3.2044     1.6047 O             1 RES     
    3207 O           94.4491    19.6374     1.6047 O             1 RES     
    3208 O          113.4243    19.6374     1.6047 O             1 RES     
    3209 O           87.5705     6.2445     1.6047 O             1 RES     
    3210 O           78.0829    22.6775     1.6047 O             1 RES     
    3211 O          106.5457     6.2445     1.6047 O             1 RES     
    3212 O           97.0581    22.6775     1.6047 O             1 RES     
    3213 O           83.6332     6.9840     1.6047 O             1 RES     
    3214 O          102.6084     6.9840     1.6047 O             1 RES     
    3215 O           93.1208    23.4170     1.6047 O             1 RES     
    3216 O          112.0960    23.4170     1.6047 O             1 RES     
    3217 O           76.3277    13.2286     5.6569 O             1 RES     
    3218 O           95.3029    13.2286     5.6569 O             1 RES     
    3219 O           85.8153    29.6616     5.6569 O             1 RES     
    3220 O          104.7905    29.6616     5.6569 O             1 RES     
    3221 O           92.6939    10.1885     5.6569 O             1 RES     
    3222 O           83.2063    26.6215     5.6569 O             1 RES     
    3223 O          111.6691    10.1885     5.6569 O             1 RES     
    3224 O          102.1815    26.6215     5.6569 O             1 RES     
    3225 O           77.6560     9.4490     5.6569 O             1 RES     
    3226 O           96.6312     9.4490     5.6569 O             1 RES     
    3227 O           87.1436    25.8820     5.6569 O             1 RES     
    3228 O          106.1188    25.8820     5.6569 O             1 RES     
    3229 O           87.6844     3.8782     2.5529 O             1 RES     
    3230 O           78.1968    20.3112     2.5529 O             1 RES     
    3231 O          106.6596     3.8782     2.5529 O             1 RES     
    3232 O           97.1720    20.3112     2.5529 O             1 RES     
    3233 O           85.6256     8.2658     2.5529 O             1 RES     
    3234 O           76.1380    24.6988     2.5529 O             1 RES     
    3235 O          104.6008     8.2658     2.5529 O             1 RES     
    3236 O           95.1132    24.6988     2.5529 O             1 RES     
    3237 O           82.8552     4.2890     2.5529 O             1 RES     
    3238 O          101.8304     4.2890     2.5529 O             1 RES     
    3239 O           92.3428    20.7220     2.5529 O             1 RES     
    3240 O          111.3180    20.7220     2.5529 O             1 RES     
    3241 O           92.5800    12.5548     6.6051 O             1 RES     
    3242 O           83.0924    28.9878     6.6051 O             1 RES     
    3243 O          111.5552    12.5548     6.6051 O             1 RES     
    3244 O          102.0676    28.9878     6.6051 O             1 RES     
    3245 O           94.6388     8.1672     6.6051 O             1 RES     
    3246 O           85.1512    24.6002     6.6051 O             1 RES     
    3247 O          113.6140     8.1672     6.6051 O             1 RES     
    3248 O          104.1264    24.6002     6.6051 O             1 RES     
    3249 O           78.4340    12.1440     6.6051 O             1 RES     
    3250 O           97.4092    12.1440     6.6051 O             1 RES     
    3251 O           87.9216    28.5770     6.6051 O             1 RES     
    3252 O          106.8968    28.5770     6.6051 O             1 RES     
    3253 O           77.0678    13.5572    -0.1216 O             1 RES     
    3254 O           96.0430    13.5572    -0.1216 O             1 RES     
    3255 O           86.5554    29.9902    -0.1216 O             1 RES     
    3256 O          105.5306    29.9902    -0.1216 O             1 RES     
    3257 O           92.0392    10.6650    -0.1216 O             1 RES     
    3258 O           82.5516    27.0980    -0.1216 O             1 RES     
    3259 O          111.0144    10.6650    -0.1216 O             1 RES     
    3260 O          101.5268    27.0980    -0.1216 O             1 RES     
    3261 O           77.5706     8.6438    -0.1216 O             1 RES     
    3262 O           96.5458     8.6438    -0.1216 O             1 RES     
    3263 O           87.0582    25.0768    -0.1216 O             1 RES     
    3264 O          106.0334    25.0768    -0.1216 O             1 RES     
    3265 O           83.9937     0.1479     8.4043 O             1 RES     
    3266 O          102.9689     0.1479     8.4043 O             1 RES     
    3267 O           93.4813    16.5809     8.4043 O             1 RES     
    3268 O          112.4565    16.5809     8.4043 O             1 RES     
    3269 O           90.7015     6.9347     8.4043 O             1 RES     
    3270 O           81.2139    23.3677     8.4043 O             1 RES     
    3271 O          109.6767     6.9347     8.4043 O             1 RES     
    3272 O          100.1891    23.3677     8.4043 O             1 RES     
    3273 O           81.4700     9.3504     8.4043 O             1 RES     
    3274 O          100.4452     9.3504     8.4043 O             1 RES     
    3275 O           90.9576    25.7834     8.4043 O             1 RES     
    3276 O          109.9328    25.7834     8.4043 O             1 RES     
    3277 Al          92.7033    49.2826     1.9370 Al            1 RES     
    3278 Al          83.2157    65.7156     1.9370 Al            1 RES     
    3279 Al         111.6785    49.2826     1.9370 Al            1 RES     
    3280 Al         102.1909    65.7156     1.9370 Al            1 RES     
    3281 Al          91.2328    39.2092     1.9370 Al            1 RES     
    3282 Al          81.7452    55.6422     1.9370 Al            1 RES     
    3283 Al         110.2080    39.2092     1.9370 Al            1 RES     
    3284 Al         100.7204    55.6422     1.9370 Al            1 RES     
    3285 Al          81.7167    42.9723     1.9370 Al            1 RES     
    3286 Al         100.6919    42.9723     1.9370 Al            1 RES     
    3287 Al          91.2043    59.4053     1.9370 Al            1 RES     
    3288 Al         110.1795    59.4053     1.9370 Al            1 RES     
    3289 Al          87.5611    32.8824     5.9892 Al            1 RES     
    3290 Al          78.0735    49.3155     5.9892 Al            1 RES     
    3291 Al         106.5363    32.8824     5.9892 Al            1 RES     
    3292 Al          97.0487    49.3155     5.9892 Al            1 RES     
    3293 Al          89.0316    42.9559     5.9892 Al            1 RES     
    3294 Al          79.5440    59.3889     5.9892 Al            1 RES     
    3295 Al         108.0068    42.9559     5.9892 Al            1 RES     
    3296 Al          98.5192    59.3889     5.9892 Al            1 RES     
    3297 Al          79.5725    39.1927     5.9892 Al            1 RES     
    3298 Al          98.5477    39.1927     5.9892 Al            1 RES     
    3299 Al          89.0601    55.6257     5.9892 Al            1 RES     
    3300 Al         108.0353    55.6257     5.9892 Al            1 RES     
    3301 Al          77.0488    46.4561     1.6533 Al            1 RES     
    3302 Al          96.0240    46.4561     1.6533 Al            1 RES     
    3303 Al          86.5364    62.8891     1.6533 Al            1 RES     
    3304 Al         105.5116    62.8891     1.6533 Al            1 RES     
    3305 Al          92.0202    43.4982     1.6533 Al            1 RES     
    3306 Al          82.5326    59.9312     1.6533 Al            1 RES     
    3307 Al         110.9954    43.4982     1.6533 Al            1 RES     
    3308 Al         101.5078    59.9312     1.6533 Al            1 RES     
    3309 Al          77.6086    41.5098     1.6533 Al            1 RES     
    3310 Al          96.5838    41.5098     1.6533 Al            1 RES     
    3311 Al          87.0962    57.9428     1.6533 Al            1 RES     
    3312 Al         106.0714    57.9428     1.6533 Al            1 RES     
    3313 Al          84.2404    35.7089     5.7055 Al            1 RES     
    3314 Al         103.2156    35.7089     5.7055 Al            1 RES     
    3315 Al          93.7280    52.1419     5.7055 Al            1 RES     
    3316 Al         112.7032    52.1419     5.7055 Al            1 RES     
    3317 Al          88.2442    38.6669     5.7055 Al            1 RES     
    3318 Al          78.7566    55.0999     5.7055 Al            1 RES     
    3319 Al         107.2194    38.6669     5.7055 Al            1 RES     
    3320 Al          97.7318    55.0999     5.7055 Al            1 RES     
    3321 Al          83.6806    40.6553     5.7055 Al            1 RES     
    3322 Al         102.6558    40.6553     5.7055 Al            1 RES     
    3323 Al          93.1682    57.0883     5.7055 Al            1 RES     
    3324 Al         112.1434    57.0883     5.7055 Al            1 RES     
    3325 Al          86.7072    35.6432     1.6047 Al            1 RES     
    3326 Al          77.2196    52.0762     1.6047 Al            1 RES     
    3327 Al         105.6824    35.6432     1.6047 Al            1 RES     
    3328 Al          96.1948    52.0762     1.6047 Al            1 RES     
    3329 Al          87.0677    40.8360     1.6047 Al            1 RES     
    3330 Al          77.5801    57.2690     1.6047 Al            1 RES     
    3331 Al         106.0429    40.8360     1.6047 Al            1 RES     
    3332 Al          96.5553    57.2690     1.6047 Al            1 RES     
    3333 Al          82.3903    38.5518     1.6047 Al            1 RES     
    3334 Al         101.3655    38.5518     1.6047 Al            1 RES     
    3335 Al          91.8779    54.9848     1.6047 Al            1 RES     
    3336 Al         110.8531    54.9848     1.6047 Al            1 RES     
    3337 Al          93.5572    46.5218     5.6569 Al            1 RES     
    3338 Al          84.0696    62.9548     5.6569 Al            1 RES     
    3339 Al         112.5324    46.5218     5.6569 Al            1 RES     
    3340 Al         103.0448    62.9548     5.6569 Al            1 RES     
    3341 Al          93.1967    41.3290     5.6569 Al            1 RES     
    3342 Al          83.7091    57.7620     5.6569 Al            1 RES     
    3343 Al         112.1719    41.3290     5.6569 Al            1 RES     
    3344 Al         102.6843    57.7620     5.6569 Al            1 RES     
    3345 Al          78.8989    43.6132     5.6569 Al            1 RES     
    3346 Al          97.8741    43.6132     5.6569 Al            1 RES     
    3347 Al          88.3865    60.0462     5.6569 Al            1 RES     
    3348 Al         107.3617    60.0462     5.6569 Al            1 RES     
    3349 P           76.8590    49.2826     2.9014 P             1 RES     
    3350 P           95.8342    49.2826     2.9014 P             1 RES     
    3351 P           86.3466    65.7156     2.9014 P             1 RES     
    3352 P          105.3218    65.7156     2.9014 P             1 RES     
    3353 P           89.6673    41.9206     2.9014 P             1 RES     
    3354 P           80.1797    58.3536     2.9014 P             1 RES     
    3355 P          108.6425    41.9206     2.9014 P             1 RES     
    3356 P           99.1549    58.3536     2.9014 P             1 RES     
    3357 P           80.1512    40.2609     2.9014 P             1 RES     
    3358 P           99.1264    40.2609     2.9014 P             1 RES     
    3359 P           89.6388    56.6939     2.9014 P             1 RES     
    3360 P          108.6140    56.6939     2.9014 P             1 RES     
    3361 P           84.4302    32.8824     6.9536 P             1 RES     
    3362 P          103.4054    32.8824     6.9536 P             1 RES     
    3363 P           93.9178    49.3155     6.9536 P             1 RES     
    3364 P          112.8930    49.3155     6.9536 P             1 RES     
    3365 P           90.5971    40.2444     6.9536 P             1 RES     
    3366 P           81.1095    56.6774     6.9536 P             1 RES     
    3367 P          109.5723    40.2444     6.9536 P             1 RES     
    3368 P          100.0847    56.6774     6.9536 P             1 RES     
    3369 P           81.1380    41.9042     6.9536 P             1 RES     
    3370 P          100.1132    41.9042     6.9536 P             1 RES     
    3371 P           90.6256    58.3372     6.9536 P             1 RES     
    3372 P          109.6008    58.3372     6.9536 P             1 RES     
    3373 P           93.0449    46.2589     2.5934 P             1 RES     
    3374 P           83.5573    62.6919     2.5934 P             1 RES     
    3375 P          112.0201    46.2589     2.5934 P             1 RES     
    3376 P          102.5325    62.6919     2.5934 P             1 RES     
    3377 P           93.6806    41.0168     2.5934 P             1 RES     
    3378 P           84.1930    57.4498     2.5934 P             1 RES     
    3379 P          112.6558    41.0168     2.5934 P             1 RES     
    3380 P          103.1682    57.4498     2.5934 P             1 RES     
    3381 P           78.9273    44.1884     2.5934 P             1 RES     
    3382 P           97.9025    44.1884     2.5934 P             1 RES     
    3383 P           88.4149    60.6214     2.5934 P             1 RES     
    3384 P          107.3901    60.6214     2.5934 P             1 RES     
    3385 P           87.2195    35.9061     6.6456 P             1 RES     
    3386 P           77.7319    52.3391     6.6456 P             1 RES     
    3387 P          106.1947    35.9061     6.6456 P             1 RES     
    3388 P           96.7071    52.3391     6.6456 P             1 RES     
    3389 P           86.5838    41.1482     6.6456 P             1 RES     
    3390 P           77.0962    57.5813     6.6456 P             1 RES     
    3391 P          105.5590    41.1482     6.6456 P             1 RES     
    3392 P           96.0714    57.5813     6.6456 P             1 RES     
    3393 P           82.3619    37.9767     6.6456 P             1 RES     
    3394 P          101.3371    37.9767     6.6456 P             1 RES     
    3395 P           91.8495    54.4097     6.6456 P             1 RES     
    3396 P          110.8247    54.4097     6.6456 P             1 RES     
    3397 P           83.7660    35.9061     2.5043 P             1 RES     
    3398 P          102.7412    35.9061     2.5043 P             1 RES     
    3399 P           93.2536    52.3391     2.5043 P             1 RES     
    3400 P          112.2288    52.3391     2.5043 P             1 RES     
    3401 P           88.3106    38.1574     2.5043 P             1 RES     
    3402 P           78.8230    54.5904     2.5043 P             1 RES     
    3403 P          107.2858    38.1574     2.5043 P             1 RES     
    3404 P           97.7982    54.5904     2.5043 P             1 RES     
    3405 P           84.0886    40.9675     2.5043 P             1 RES     
    3406 P          103.0638    40.9675     2.5043 P             1 RES     
    3407 P           93.5762    57.4005     2.5043 P             1 RES     
    3408 P          112.5514    57.4005     2.5043 P             1 RES     
    3409 P           77.5232    46.2589     6.5565 P             1 RES     
    3410 P           96.4984    46.2589     6.5565 P             1 RES     
    3411 P           87.0108    62.6919     6.5565 P             1 RES     
    3412 P          105.9860    62.6919     6.5565 P             1 RES     
    3413 P           91.9538    44.0076     6.5565 P             1 RES     
    3414 P           82.4662    60.4406     6.5565 P             1 RES     
    3415 P          110.9290    44.0076     6.5565 P             1 RES     
    3416 P          101.4414    60.4406     6.5565 P             1 RES     
    3417 P           77.2006    41.1975     6.5565 P             1 RES     
    3418 P           96.1758    41.1975     6.5565 P             1 RES     
    3419 P           86.6882    57.6306     6.5565 P             1 RES     
    3420 P          105.6634    57.6306     6.5565 P             1 RES     
    3421 O           84.8097    32.8824     2.7474 O             1 RES     
    3422 O          103.7849    32.8824     2.7474 O             1 RES     
    3423 O           94.2973    49.3155     2.7474 O             1 RES     
    3424 O          113.2725    49.3155     2.7474 O             1 RES     
    3425 O           90.4073    40.5731     2.7474 O             1 RES     
    3426 O           80.9197    57.0061     2.7474 O             1 RES     
    3427 O          109.3825    40.5731     2.7474 O             1 RES     
    3428 O           99.8949    57.0061     2.7474 O             1 RES     
    3429 O           80.9482    41.5755     2.7474 O             1 RES     
    3430 O           99.9234    41.5755     2.7474 O             1 RES     
    3431 O           90.4358    58.0085     2.7474 O             1 RES     
    3432 O          109.4110    58.0085     2.7474 O             1 RES     
    3433 O           76.4795    49.2826     6.7996 O             1 RES     
    3434 O           95.4547    49.2826     6.7996 O             1 RES     
    3435 O           85.9671    65.7156     6.7996 O             1 RES     
    3436 O          104.9423    65.7156     6.7996 O             1 RES     
    3437 O           89.8571    41.5919     6.7996 O             1 RES     
    3438 O           80.3695    58.0249     6.7996 O             1 RES     
    3439 O          108.8323    41.5919     6.7996 O             1 RES     
    3440 O           99.3447    58.0249     6.7996 O             1 RES     
    3441 O           80.3410    40.5895     6.7996 O             1 RES     
    3442 O           99.3162    40.5895     6.7996 O             1 RES     
    3443 O           89.8286    57.0225     6.7996 O             1 RES     
    3444 O          108.8038    57.0225     6.7996 O             1 RES     
    3445 O           83.9937    33.0139     0.2999 O             1 RES     
    3446 O          102.9689    33.0139     0.2999 O             1 RES     
    3447 O           93.4813    49.4469     0.2999 O             1 RES     
    3448 O          112.4565    49.4469     0.2999 O             1 RES     
    3449 O           90.7015    39.8007     0.2999 O             1 RES     
    3450 O           81.2139    56.2337     0.2999 O             1 RES     
    3451 O          109.6767    39.8007     0.2999 O             1 RES     
    3452 O          100.1891    56.2337     0.2999 O             1 RES     
    3453 O           81.4700    42.2164     0.2999 O             1 RES     
    3454 O          100.4452    42.2164     0.2999 O             1 RES     
    3455 O           90.9576    58.6494     0.2999 O             1 RES     
    3456 O          109.9328    58.6494     0.2999 O             1 RES     
    3457 O           77.2955    49.1511     4.3521 O             1 RES     
    3458 O           96.2707    49.1511     4.3521 O             1 RES     
    3459 O           86.7831    65.5841     4.3521 O             1 RES     
    3460 O          105.7583    65.5841     4.3521 O             1 RES     
    3461 O           89.5629    42.3643     4.3521 O             1 RES     
    3462 O           80.0753    58.7973     4.3521 O             1 RES     
    3463 O          108.5381    42.3643     4.3521 O             1 RES     
    3464 O           99.0505    58.7973     4.3521 O             1 RES     
    3465 O           79.8192    39.9486     4.3521 O             1 RES     
    3466 O           98.7944    39.9486     4.3521 O             1 RES     
    3467 O           89.3068    56.3816     4.3521 O             1 RES     
    3468 O          108.2820    56.3816     4.3521 O             1 RES     
    3469 O           92.5610    47.4585     1.8073 O             1 RES     
    3470 O           83.0734    63.8915     1.8073 O             1 RES     
    3471 O          111.5362    47.4585     1.8073 O             1 RES     
    3472 O          102.0486    63.8915     1.8073 O             1 RES     
    3473 O           92.8836    39.9979     1.8073 O             1 RES     
    3474 O           83.3960    56.4309     1.8073 O             1 RES     
    3475 O          111.8588    39.9979     1.8073 O             1 RES     
    3476 O          102.3712    56.4309     1.8073 O             1 RES     
    3477 O           80.2082    44.0076     1.8073 O             1 RES     
    3478 O           99.1834    44.0076     1.8073 O             1 RES     
    3479 O           89.6958    60.4406     1.8073 O             1 RES     
    3480 O          108.6710    60.4406     1.8073 O             1 RES     
    3481 O           87.7034    34.7065     5.8595 O             1 RES     
    3482 O           78.2158    51.1395     5.8595 O             1 RES     
    3483 O          106.6786    34.7065     5.8595 O             1 RES     
    3484 O           97.1910    51.1395     5.8595 O             1 RES     
    3485 O           87.3808    42.1671     5.8595 O             1 RES     
    3486 O           77.8932    58.6001     5.8595 O             1 RES     
    3487 O          106.3560    42.1671     5.8595 O             1 RES     
    3488 O           96.8684    58.6001     5.8595 O             1 RES     
    3489 O           81.0810    38.1574     5.8595 O             1 RES     
    3490 O          100.0562    38.1574     5.8595 O             1 RES     
    3491 O           90.5686    54.5904     5.8595 O             1 RES     
    3492 O          109.5438    54.5904     5.8595 O             1 RES     
    3493 O           83.0070    34.6901     2.0666 O             1 RES     
    3494 O          101.9822    34.6901     2.0666 O             1 RES     
    3495 O           92.4946    51.1231     2.0666 O             1 RES     
    3496 O          111.4698    51.1231     2.0666 O             1 RES     
    3497 O           89.7432    38.1081     2.0666 O             1 RES     
    3498 O           80.2556    54.5411     2.0666 O             1 RES     
    3499 O          108.7184    38.1081     2.0666 O             1 RES     
    3500 O           99.2308    54.5411     2.0666 O             1 RES     
    3501 O           83.4150    42.2328     2.0666 O             1 RES     
    3502 O          102.3902    42.2328     2.0666 O             1 RES     
    3503 O           92.9026    58.6658     2.0666 O             1 RES     
    3504 O          111.8778    58.6658     2.0666 O             1 RES     
    3505 O           78.2822    47.4750     6.1188 O             1 RES     
    3506 O           97.2574    47.4750     6.1188 O             1 RES     
    3507 O           87.7698    63.9080     6.1188 O             1 RES     
    3508 O          106.7450    63.9080     6.1188 O             1 RES     
    3509 O           90.5212    44.0569     6.1188 O             1 RES     
    3510 O           81.0336    60.4899     6.1188 O             1 RES     
    3511 O          109.4964    44.0569     6.1188 O             1 RES     
    3512 O          100.0088    60.4899     6.1188 O             1 RES     
    3513 O           77.8742    39.9322     6.1188 O             1 RES     
    3514 O           96.8494    39.9322     6.1188 O             1 RES     
    3515 O           87.3618    56.3652     6.1188 O             1 RES     
    3516 O          106.3370    56.3652     6.1188 O             1 RES     
    3517 O           77.3619    48.0830     2.1396 O             1 RES     
    3518 O           96.3371    48.0830     2.1396 O             1 RES     
    3519 O           86.8495    64.5160     2.1396 O             1 RES     
    3520 O          105.8247    64.5160     2.1396 O             1 RES     
    3521 O           90.4548    42.9559     2.1396 O             1 RES     
    3522 O           80.9672    59.3889     2.1396 O             1 RES     
    3523 O          109.4300    42.9559     2.1396 O             1 RES     
    3524 O           99.9424    59.3889     2.1396 O             1 RES     
    3525 O           78.8609    40.4252     2.1396 O             1 RES     
    3526 O           97.8361    40.4252     2.1396 O             1 RES     
    3527 O           88.3485    56.8582     2.1396 O             1 RES     
    3528 O          107.3237    56.8582     2.1396 O             1 RES     
    3529 O           83.9273    34.0821     6.1918 O             1 RES     
    3530 O          102.9025    34.0821     6.1918 O             1 RES     
    3531 O           93.4149    50.5151     6.1918 O             1 RES     
    3532 O          112.3901    50.5151     6.1918 O             1 RES     
    3533 O           89.8096    39.2092     6.1918 O             1 RES     
    3534 O           80.3220    55.6422     6.1918 O             1 RES     
    3535 O          108.7848    39.2092     6.1918 O             1 RES     
    3536 O           99.2972    55.6422     6.1918 O             1 RES     
    3537 O           82.4283    41.7398     6.1918 O             1 RES     
    3538 O          101.4035    41.7398     6.1918 O             1 RES     
    3539 O           91.9159    58.1728     6.1918 O             1 RES     
    3540 O          110.8911    58.1728     6.1918 O             1 RES     
    3541 O           86.9633    34.0492     2.2530 O             1 RES     
    3542 O           77.4757    50.4822     2.2530 O             1 RES     
    3543 O          105.9385    34.0492     2.2530 O             1 RES     
    3544 O           96.4509    50.4822     2.2530 O             1 RES     
    3545 O           88.3201    41.8549     2.2530 O             1 RES     
    3546 O           78.8325    58.2879     2.2530 O             1 RES     
    3547 O          107.2953    41.8549     2.2530 O             1 RES     
    3548 O           97.8077    58.2879     2.2530 O             1 RES     
    3549 O           80.8818    39.1270     2.2530 O             1 RES     
    3550 O           99.8570    39.1270     2.2530 O             1 RES     
    3551 O           90.3694    55.5600     2.2530 O             1 RES     
    3552 O          109.3446    55.5600     2.2530 O             1 RES     
    3553 O           93.3011    48.1158     6.3052 O             1 RES     
    3554 O           83.8135    64.5488     6.3052 O             1 RES     
    3555 O          112.2763    48.1158     6.3052 O             1 RES     
    3556 O          102.7887    64.5488     6.3052 O             1 RES     
    3557 O           91.9443    40.3102     6.3052 O             1 RES     
    3558 O           82.4567    56.7432     6.3052 O             1 RES     
    3559 O          110.9195    40.3102     6.3052 O             1 RES     
    3560 O          101.4319    56.7432     6.3052 O             1 RES     
    3561 O           80.4074    43.0380     6.3052 O             1 RES     
    3562 O           99.3826    43.0380     6.3052 O             1 RES     
    3563 O           89.8950    59.4710     6.3052 O             1 RES     
    3564 O          108.8702    59.4710     6.3052 O             1 RES     
    3565 O           78.3201    45.5030     2.2692 O             1 RES     
    3566 O           97.2953    45.5030     2.2692 O             1 RES     
    3567 O           87.8077    61.9360     2.2692 O             1 RES     
    3568 O          106.7829    61.9360     2.2692 O             1 RES     
    3569 O           92.2100    45.0757     2.2692 O             1 RES     
    3570 O           82.7224    61.5087     2.2692 O             1 RES     
    3571 O          111.1852    45.0757     2.2692 O             1 RES     
    3572 O          101.6976    61.5087     2.2692 O             1 RES     
    3573 O           76.1475    40.8853     2.2692 O             1 RES     
    3574 O           95.1227    40.8853     2.2692 O             1 RES     
    3575 O           85.6351    57.3183     2.2692 O             1 RES     
    3576 O          104.6103    57.3183     2.2692 O             1 RES     
    3577 O           82.9691    36.6620     6.3214 O             1 RES     
    3578 O          101.9443    36.6620     6.3214 O             1 RES     
    3579 O           92.4567    53.0950     6.3214 O             1 RES     
    3580 O          111.4319    53.0950     6.3214 O             1 RES     
    3581 O           88.0544    37.0893     6.3214 O             1 RES     
    3582 O           78.5668    53.5223     6.3214 O             1 RES     
    3583 O          107.0296    37.0893     6.3214 O             1 RES     
    3584 O           97.5420    53.5223     6.3214 O             1 RES     
    3585 O           85.1417    41.2797     6.3214 O             1 RES     
    3586 O          104.1169    41.2797     6.3214 O             1 RES     
    3587 O           94.6293    57.7127     6.3214 O             1 RES     
    3588 O          113.6045    57.7127     6.3214 O             1 RES     
    3589 O           94.5155    45.9138     2.2692 O             1 RES     
    3590 O           85.0279    62.3468     2.2692 O             1 RES     
    3591 O          113.4907    45.9138     2.2692 O             1 RES     
    3592 O          104.0031    62.3468     2.2692 O             1 RES     
    3593 O           93.2441    42.4629     2.2692 O             1 RES     
    3594 O           83.7565    58.8959     2.2692 O             1 RES     
    3595 O          112.2193    42.4629     2.2692 O             1 RES     
    3596 O          102.7317    58.8959     2.2692 O             1 RES     
    3597 O           77.8932    43.0873     2.2692 O             1 RES     
    3598 O           96.8684    43.0873     2.2692 O             1 RES     
    3599 O           87.3808    59.5203     2.2692 O             1 RES     
    3600 O          106.3560    59.5203     2.2692 O             1 RES     
    3601 O           85.7489    36.2512     6.3214 O             1 RES     
    3602 O           76.2613    52.6842     6.3214 O             1 RES     
    3603 O          104.7241    36.2512     6.3214 O             1 RES     
    3604 O           95.2365    52.6842     6.3214 O             1 RES     
    3605 O           87.0203    39.7021     6.3214 O             1 RES     
    3606 O           77.5327    56.1351     6.3214 O             1 RES     
    3607 O          105.9955    39.7021     6.3214 O             1 RES     
    3608 O           96.5079    56.1351     6.3214 O             1 RES     
    3609 O           83.3960    39.0777     6.3214 O             1 RES     
    3610 O          102.3712    39.0777     6.3214 O             1 RES     
    3611 O           92.8836    55.5107     6.3214 O             1 RES     
    3612 O          111.8588    55.5107     6.3214 O             1 RES     
    3613 O           77.0678    46.4232     7.9828 O             1 RES     
    3614 O           96.0430    46.4232     7.9828 O             1 RES     
    3615 O           86.5554    62.8562     7.9828 O             1 RES     
    3616 O          105.5306    62.8562     7.9828 O             1 RES     
    3617 O           92.0392    43.5310     7.9828 O             1 RES     
    3618 O           82.5516    59.9640     7.9828 O             1 RES     
    3619 O          111.0144    43.5310     7.9828 O             1 RES     
    3620 O          101.5268    59.9640     7.9828 O             1 RES     
    3621 O           77.5706    41.5098     7.9828 O             1 RES     
    3622 O           96.5458    41.5098     7.9828 O             1 RES     
    3623 O           87.0582    57.9428     7.9828 O             1 RES     
    3624 O          106.0334    57.9428     7.9828 O             1 RES     
    3625 O           84.2214    35.7418     3.9306 O             1 RES     
    3626 O          103.1966    35.7418     3.9306 O             1 RES     
    3627 O           93.7090    52.1748     3.9306 O             1 RES     
    3628 O          112.6842    52.1748     3.9306 O             1 RES     
    3629 O           88.2252    38.6340     3.9306 O             1 RES     
    3630 O           78.7376    55.0670     3.9306 O             1 RES     
    3631 O          107.2004    38.6340     3.9306 O             1 RES     
    3632 O           97.7128    55.0670     3.9306 O             1 RES     
    3633 O           83.7186    40.6553     3.9306 O             1 RES     
    3634 O          102.6938    40.6553     3.9306 O             1 RES     
    3635 O           93.2062    57.0883     3.9306 O             1 RES     
    3636 O          112.1814    57.0883     3.9306 O             1 RES     
    3637 O           92.8836    46.5383     4.0522 O             1 RES     
    3638 O           83.3960    62.9713     4.0522 O             1 RES     
    3639 O          111.8588    46.5383     4.0522 O             1 RES     
    3640 O          102.3712    62.9713     4.0522 O             1 RES     
    3641 O           93.5193    40.7374     4.0522 O             1 RES     
    3642 O           84.0317    57.1704     4.0522 O             1 RES     
    3643 O          112.4945    40.7374     4.0522 O             1 RES     
    3644 O          103.0069    57.1704     4.0522 O             1 RES     
    3645 O           79.2499    44.1884     4.0522 O             1 RES     
    3646 O           98.2251    44.1884     4.0522 O             1 RES     
    3647 O           88.7375    60.6214     4.0522 O             1 RES     
    3648 O          107.7127    60.6214     4.0522 O             1 RES     
    3649 O           87.3808    35.6268     0.0000 O             1 RES     
    3650 O           87.3808    35.6268     8.1044 O             1 RES     
    3651 O           77.8932    52.0598     0.0000 O             1 RES     
    3652 O           77.8932    52.0598     8.1044 O             1 RES     
    3653 O          106.3560    35.6268     0.0000 O             1 RES     
    3654 O          106.3560    35.6268     8.1044 O             1 RES     
    3655 O           96.8684    52.0598     0.0000 O             1 RES     
    3656 O           96.8684    52.0598     8.1044 O             1 RES     
    3657 O           86.7451    41.4276     0.0000 O             1 RES     
    3658 O           86.7451    41.4276     8.1044 O             1 RES     
    3659 O           77.2575    57.8606     0.0000 O             1 RES     
    3660 O           77.2575    57.8606     8.1044 O             1 RES     
    3661 O          105.7203    41.4276     0.0000 O             1 RES     
    3662 O          105.7203    41.4276     8.1044 O             1 RES     
    3663 O           96.2327    57.8606     0.0000 O             1 RES     
    3664 O           96.2327    57.8606     8.1044 O             1 RES     
    3665 O           82.0393    37.9767     0.0000 O             1 RES     
    3666 O           82.0393    37.9767     8.1044 O             1 RES     
    3667 O          101.0145    37.9767     0.0000 O             1 RES     
    3668 O          101.0145    37.9767     8.1044 O             1 RES     
    3669 O           91.5269    54.4097     0.0000 O             1 RES     
    3670 O           91.5269    54.4097     8.1044 O             1 RES     
    3671 O          110.5021    54.4097     0.0000 O             1 RES     
    3672 O          110.5021    54.4097     8.1044 O             1 RES     
    3673 O           84.9615    36.0704     1.6047 O             1 RES     
    3674 O          103.9367    36.0704     1.6047 O             1 RES     
    3675 O           94.4491    52.5035     1.6047 O             1 RES     
    3676 O          113.4243    52.5035     1.6047 O             1 RES     
    3677 O           87.5705    39.1106     1.6047 O             1 RES     
    3678 O           78.0829    55.5436     1.6047 O             1 RES     
    3679 O          106.5457    39.1106     1.6047 O             1 RES     
    3680 O           97.0581    55.5436     1.6047 O             1 RES     
    3681 O           83.6332    39.8500     1.6047 O             1 RES     
    3682 O          102.6084    39.8500     1.6047 O             1 RES     
    3683 O           93.1208    56.2830     1.6047 O             1 RES     
    3684 O          112.0960    56.2830     1.6047 O             1 RES     
    3685 O           76.3277    46.0946     5.6569 O             1 RES     
    3686 O           95.3029    46.0946     5.6569 O             1 RES     
    3687 O           85.8153    62.5276     5.6569 O             1 RES     
    3688 O          104.7905    62.5276     5.6569 O             1 RES     
    3689 O           92.6939    43.0545     5.6569 O             1 RES     
    3690 O           83.2063    59.4875     5.6569 O             1 RES     
    3691 O          111.6691    43.0545     5.6569 O             1 RES     
    3692 O          102.1815    59.4875     5.6569 O             1 RES     
    3693 O           77.6560    42.3150     5.6569 O             1 RES     
    3694 O           96.6312    42.3150     5.6569 O             1 RES     
    3695 O           87.1436    58.7480     5.6569 O             1 RES     
    3696 O          106.1188    58.7480     5.6569 O             1 RES     
    3697 O           87.6844    36.7442     2.5529 O             1 RES     
    3698 O           78.1968    53.1772     2.5529 O             1 RES     
    3699 O          106.6596    36.7442     2.5529 O             1 RES     
    3700 O           97.1720    53.1772     2.5529 O             1 RES     
    3701 O           85.6256    41.1318     2.5529 O             1 RES     
    3702 O           76.1380    57.5648     2.5529 O             1 RES     
    3703 O          104.6008    41.1318     2.5529 O             1 RES     
    3704 O           95.1132    57.5648     2.5529 O             1 RES     
    3705 O           82.8552    37.1550     2.5529 O             1 RES     
    3706 O          101.8304    37.1550     2.5529 O             1 RES     
    3707 O           92.3428    53.5880     2.5529 O             1 RES     
    3708 O          111.3180    53.5880     2.5529 O             1 RES     
    3709 O           92.5800    45.4208     6.6051 O             1 RES     
    3710 O           83.0924    61.8538     6.6051 O             1 RES     
    3711 O          111.5552    45.4208     6.6051 O             1 RES     
    3712 O          102.0676    61.8538     6.6051 O             1 RES     
    3713 O           94.6388    41.0332     6.6051 O             1 RES     
    3714 O           85.1512    57.4662     6.6051 O             1 RES     
    3715 O          113.6140    41.0332     6.6051 O             1 RES     
    3716 O          104.1264    57.4662     6.6051 O             1 RES     
    3717 O           78.4340    45.0100     6.6051 O             1 RES     
    3718 O           97.4092    45.0100     6.6051 O             1 RES     
    3719 O           87.9216    61.4430     6.6051 O             1 RES     
    3720 O          106.8968    61.4430     6.6051 O             1 RES     
    3721 O           77.0678    46.4232    -0.1216 O             1 RES     
    3722 O           96.0430    46.4232    -0.1216 O             1 RES     
    3723 O           86.5554    62.8562    -0.1216 O             1 RES     
    3724 O          105.5306    62.8562    -0.1216 O             1 RES     
    3725 O           92.0392    43.5310    -0.1216 O             1 RES     
    3726 O           82.5516    59.9640    -0.1216 O             1 RES     
    3727 O          111.0144    43.5310    -0.1216 O             1 RES     
    3728 O          101.5268    59.9640    -0.1216 O             1 RES     
    3729 O           77.5706    41.5098    -0.1216 O             1 RES     
    3730 O           96.5458    41.5098    -0.1216 O             1 RES     
    3731 O           87.0582    57.9428    -0.1216 O             1 RES     
    3732 O          106.0334    57.9428    -0.1216 O             1 RES     
    3733 O           83.9937    33.0139     8.4043 O             1 RES     
    3734 O          102.9689    33.0139     8.4043 O             1 RES     
    3735 O           93.4813    49.4469     8.4043 O             1 RES     
    3736 O          112.4565    49.4469     8.4043 O             1 RES     
    3737 O           90.7015    39.8007     8.4043 O             1 RES     
    3738 O           81.2139    56.2337     8.4043 O             1 RES     
    3739 O          109.6767    39.8007     8.4043 O             1 RES     
    3740 O          100.1891    56.2337     8.4043 O             1 RES     
    3741 O           81.4700    42.2164     8.4043 O             1 RES     
    3742 O          100.4452    42.2164     8.4043 O             1 RES     
    3743 O           90.9576    58.6494     8.4043 O             1 RES     
    3744 O          109.9328    58.6494     8.4043 O             1 RES     
    3745 Al          92.7033    82.1486     1.9370 Al            1 RES     
    3746 Al          83.2157    98.5816     1.9370 Al            1 RES     
    3747 Al         111.6785    82.1486     1.9370 Al            1 RES     
    3748 Al         102.1909    98.5816     1.9370 Al            1 RES     
    3749 Al          91.2328    72.0752     1.9370 Al            1 RES     
    3750 Al          81.7452    88.5082     1.9370 Al            1 RES     
    3751 Al         110.2080    72.0752     1.9370 Al            1 RES     
    3752 Al         100.7204    88.5082     1.9370 Al            1 RES     
    3753 Al          81.7167    75.8383     1.9370 Al            1 RES     
    3754 Al         100.6919    75.8383     1.9370 Al            1 RES     
    3755 Al          91.2043    92.2713     1.9370 Al            1 RES     
    3756 Al         110.1795    92.2713     1.9370 Al            1 RES     
    3757 Al          87.5611    65.7485     5.9892 Al            1 RES     
    3758 Al          78.0735    82.1815     5.9892 Al            1 RES     
    3759 Al         106.5363    65.7485     5.9892 Al            1 RES     
    3760 Al          97.0487    82.1815     5.9892 Al            1 RES     
    3761 Al          89.0316    75.8219     5.9892 Al            1 RES     
    3762 Al          79.5440    92.2549     5.9892 Al            1 RES     
    3763 Al         108.0068    75.8219     5.9892 Al            1 RES     
    3764 Al          98.5192    92.2549     5.9892 Al            1 RES     
    3765 Al          79.5725    72.0587     5.9892 Al            1 RES     
    3766 Al          98.5477    72.0587     5.9892 Al            1 RES     
    3767 Al          89.0601    88.4917     5.9892 Al            1 RES     
    3768 Al         108.0353    88.4917     5.9892 Al            1 RES     
    3769 Al          77.0488    79.3221     1.6533 Al            1 RES     
    3770 Al          96.0240    79.3221     1.6533 Al            1 RES     
    3771 Al          86.5364    95.7551     1.6533 Al            1 RES     
    3772 Al         105.5116    95.7551     1.6533 Al            1 RES     
    3773 Al          92.0202    76.3642     1.6533 Al            1 RES     
    3774 Al          82.5326    92.7972     1.6533 Al            1 RES     
    3775 Al         110.9954    76.3642     1.6533 Al            1 RES     
    3776 Al         101.5078    92.7972     1.6533 Al            1 RES     
    3777 Al          77.6086    74.3758     1.6533 Al            1 RES     
    3778 Al          96.5838    74.3758     1.6533 Al            1 RES     
    3779 Al          87.0962    90.8088     1.6533 Al            1 RES     
    3780 Al         106.0714    90.8088     1.6533 Al            1 RES     
    3781 Al          84.2404    68.5749     5.7055 Al            1 RES     
    3782 Al         103.2156    68.5749     5.7055 Al            1 RES     
    3783 Al          93.7280    85.0079     5.7055 Al            1 RES     
    3784 Al         112.7032    85.0079     5.7055 Al            1 RES     
    3785 Al          88.2442    71.5329     5.7055 Al            1 RES     
    3786 Al          78.7566    87.9659     5.7055 Al            1 RES     
    3787 Al         107.2194    71.5329     5.7055 Al            1 RES     
    3788 Al          97.7318    87.9659     5.7055 Al            1 RES     
    3789 Al          83.6806    73.5213     5.7055 Al            1 RES     
    3790 Al         102.6558    73.5213     5.7055 Al            1 RES     
    3791 Al          93.1682    89.9543     5.7055 Al            1 RES     
    3792 Al         112.1434    89.9543     5.7055 Al            1 RES     
    3793 Al          86.7072    68.5092     1.6047 Al            1 RES     
    3794 Al          77.2196    84.9422     1.6047 Al            1 RES     
    3795 Al         105.6824    68.5092     1.6047 Al            1 RES     
    3796 Al          96.1948    84.9422     1.6047 Al            1 RES     
    3797 Al          87.0677    73.7020     1.6047 Al            1 RES     
    3798 Al          77.5801    90.1350     1.6047 Al            1 RES     
    3799 Al         106.0429    73.7020     1.6047 Al            1 RES     
    3800 Al          96.5553    90.1350     1.6047 Al            1 RES     
    3801 Al          82.3903    71.4178     1.6047 Al            1 RES     
    3802 Al         101.3655    71.4178     1.6047 Al            1 RES     
    3803 Al          91.8779    87.8508     1.6047 Al            1 RES     
    3804 Al         110.8531    87.8508     1.6047 Al            1 RES     
    3805 Al          93.5572    79.3878     5.6569 Al            1 RES     
    3806 Al          84.0696    95.8209     5.6569 Al            1 RES     
    3807 Al         112.5324    79.3878     5.6569 Al            1 RES     
    3808 Al         103.0448    95.8209     5.6569 Al            1 RES     
    3809 Al          93.1967    74.1950     5.6569 Al            1 RES     
    3810 Al          83.7091    90.6280     5.6569 Al            1 RES     
    3811 Al         112.1719    74.1950     5.6569 Al            1 RES     
    3812 Al         102.6843    90.6280     5.6569 Al            1 RES     
    3813 Al          78.8989    76.4792     5.6569 Al            1 RES     
    3814 Al          97.8741    76.4792     5.6569 Al            1 RES     
    3815 Al          88.3865    92.9122     5.6569 Al            1 RES     
    3816 Al         107.3617    92.9122     5.6569 Al            1 RES     
    3817 P           76.8590    82.1486     2.9014 P             1 RES     
    3818 P           95.8342    82.1486     2.9014 P             1 RES     
    3819 P           86.3466    98.5816     2.9014 P             1 RES     
    3820 P          105.3218    98.5816     2.9014 P             1 RES     
    3821 P           89.6673    74.7866     2.9014 P             1 RES     
    3822 P           80.1797    91.2196     2.9014 P             1 RES     
    3823 P          108.6425    74.7866     2.9014 P             1 RES     
    3824 P           99.1549    91.2196     2.9014 P             1 RES     
    3825 P           80.1512    73.1269     2.9014 P             1 RES     
    3826 P           99.1264    73.1269     2.9014 P             1 RES     
    3827 P           89.6388    89.5599     2.9014 P             1 RES     
    3828 P          108.6140    89.5599     2.9014 P             1 RES     
    3829 P           84.4302    65.7485     6.9536 P             1 RES     
    3830 P          103.4054    65.7485     6.9536 P             1 RES     
    3831 P           93.9178    82.1815     6.9536 P             1 RES     
    3832 P          112.8930    82.1815     6.9536 P             1 RES     
    3833 P           90.5971    73.1104     6.9536 P             1 RES     
    3834 P           81.1095    89.5434     6.9536 P             1 RES     
    3835 P          109.5723    73.1104     6.9536 P             1 RES     
    3836 P          100.0847    89.5434     6.9536 P             1 RES     
    3837 P           81.1380    74.7702     6.9536 P             1 RES     
    3838 P          100.1132    74.7702     6.9536 P             1 RES     
    3839 P           90.6256    91.2032     6.9536 P             1 RES     
    3840 P          109.6008    91.2032     6.9536 P             1 RES     
    3841 P           93.0449    79.1249     2.5934 P             1 RES     
    3842 P           83.5573    95.5579     2.5934 P             1 RES     
    3843 P          112.0201    79.1249     2.5934 P             1 RES     
    3844 P          102.5325    95.5579     2.5934 P             1 RES     
    3845 P           93.6806    73.8828     2.5934 P             1 RES     
    3846 P           84.1930    90.3158     2.5934 P             1 RES     
    3847 P          112.6558    73.8828     2.5934 P             1 RES     
    3848 P          103.1682    90.3158     2.5934 P             1 RES     
    3849 P           78.9273    77.0544     2.5934 P             1 RES     
    3850 P           97.9025    77.0544     2.5934 P             1 RES     
    3851 P           88.4149    93.4874     2.5934 P             1 RES     
    3852 P          107.3901    93.4874     2.5934 P             1 RES     
    3853 P           87.2195    68.7721     6.6456 P             1 RES     
    3854 P           77.7319    85.2051     6.6456 P             1 RES     
    3855 P          106.1947    68.7721     6.6456 P             1 RES     
    3856 P           96.7071    85.2051     6.6456 P             1 RES     
    3857 P           86.5838    74.0143     6.6456 P             1 RES     
    3858 P           77.0962    90.4473     6.6456 P             1 RES     
    3859 P          105.5590    74.0143     6.6456 P             1 RES     
    3860 P           96.0714    90.4473     6.6456 P             1 RES     
    3861 P           82.3619    70.8427     6.6456 P             1 RES     
    3862 P          101.3371    70.8427     6.6456 P             1 RES     
    3863 P           91.8495    87.2757     6.6456 P             1 RES     
    3864 P          110.8247    87.2757     6.6456 P             1 RES     
    3865 P           83.7660    68.7721     2.5043 P             1 RES     
    3866 P          102.7412    68.7721     2.5043 P             1 RES     
    3867 P           93.2536    85.2051     2.5043 P             1 RES     
    3868 P          112.2288    85.2051     2.5043 P             1 RES     
    3869 P           88.3106    71.0234     2.5043 P             1 RES     
    3870 P           78.8230    87.4565     2.5043 P             1 RES     
    3871 P          107.2858    71.0234     2.5043 P             1 RES     
    3872 P           97.7982    87.4565     2.5043 P             1 RES     
    3873 P           84.0886    73.8335     2.5043 P             1 RES     
    3874 P          103.0638    73.8335     2.5043 P             1 RES     
    3875 P           93.5762    90.2665     2.5043 P             1 RES     
    3876 P          112.5514    90.2665     2.5043 P             1 RES     
    3877 P           77.5232    79.1249     6.5565 P             1 RES     
    3878 P           96.4984    79.1249     6.5565 P             1 RES     
    3879 P           87.0108    95.5579     6.5565 P             1 RES     
    3880 P          105.9860    95.5579     6.5565 P             1 RES     
    3881 P           91.9538    76.8736     6.5565 P             1 RES     
    3882 P           82.4662    93.3066     6.5565 P             1 RES     
    3883 P          110.9290    76.8736     6.5565 P             1 RES     
    3884 P          101.4414    93.3066     6.5565 P             1 RES     
    3885 P           77.2006    74.0636     6.5565 P             1 RES     
    3886 P           96.1758    74.0636     6.5565 P             1 RES     
    3887 P           86.6882    90.4966     6.5565 P             1 RES     
    3888 P          105.6634    90.4966     6.5565 P             1 RES     
    3889 O           84.8097    65.7485     2.7474 O             1 RES     
    3890 O          103.7849    65.7485     2.7474 O             1 RES     
    3891 O           94.2973    82.1815     2.7474 O             1 RES     
    3892 O          113.2725    82.1815     2.7474 O             1 RES     
    3893 O           90.4073    73.4391     2.7474 O             1 RES     
    3894 O           80.9197    89.8721     2.7474 O             1 RES     
    3895 O          109.3825    73.4391     2.7474 O             1 RES     
    3896 O           99.8949    89.8721     2.7474 O             1 RES     
    3897 O           80.9482    74.4415     2.7474 O             1 RES     
    3898 O           99.9234    74.4415     2.7474 O             1 RES     
    3899 O           90.4358    90.8745     2.7474 O             1 RES     
    3900 O          109.4110    90.8745     2.7474 O             1 RES     
    3901 O           76.4795    82.1486     6.7996 O             1 RES     
    3902 O           95.4547    82.1486     6.7996 O             1 RES     
    3903 O           85.9671    98.5816     6.7996 O             1 RES     
    3904 O          104.9423    98.5816     6.7996 O             1 RES     
    3905 O           89.8571    74.4579     6.7996 O             1 RES     
    3906 O           80.3695    90.8910     6.7996 O             1 RES     
    3907 O          108.8323    74.4579     6.7996 O             1 RES     
    3908 O           99.3447    90.8910     6.7996 O             1 RES     
    3909 O           80.3410    73.4555     6.7996 O             1 RES     
    3910 O           99.3162    73.4555     6.7996 O             1 RES     
    3911 O           89.8286    89.8885     6.7996 O             1 RES     
    3912 O          108.8038    89.8885     6.7996 O             1 RES     
    3913 O           83.9937    65.8799     0.2999 O             1 RES     
    3914 O          102.9689    65.8799     0.2999 O             1 RES     
    3915 O           93.4813    82.3129     0.2999 O             1 RES     
    3916 O          112.4565    82.3129     0.2999 O             1 RES     
    3917 O           90.7015    72.6667     0.2999 O             1 RES     
    3918 O           81.2139    89.0998     0.2999 O             1 RES     
    3919 O          109.6767    72.6667     0.2999 O             1 RES     
    3920 O          100.1891    89.0998     0.2999 O             1 RES     
    3921 O           81.4700    75.0824     0.2999 O             1 RES     
    3922 O          100.4452    75.0824     0.2999 O             1 RES     
    3923 O           90.9576    91.5154     0.2999 O             1 RES     
    3924 O          109.9328    91.5154     0.2999 O             1 RES     
    3925 O           77.2955    82.0171     4.3521 O             1 RES     
    3926 O           96.2707    82.0171     4.3521 O             1 RES     
    3927 O           86.7831    98.4501     4.3521 O             1 RES     
    3928 O          105.7583    98.4501     4.3521 O             1 RES     
    3929 O           89.5629    75.2303     4.3521 O             1 RES     
    3930 O           80.0753    91.6633     4.3521 O             1 RES     
    3931 O          108.5381    75.2303     4.3521 O             1 RES     
    3932 O           99.0505    91.6633     4.3521 O             1 RES     
    3933 O           79.8192    72.8146     4.3521 O             1 RES     
    3934 O           98.7944    72.8146     4.3521 O             1 RES     
    3935 O           89.3068    89.2477     4.3521 O             1 RES     
    3936 O          108.2820    89.2477     4.3521 O             1 RES     
    3937 O           92.5610    80.3245     1.8073 O             1 RES     
    3938 O           83.0734    96.7575     1.8073 O             1 RES     
    3939 O          111.5362    80.3245     1.8073 O             1 RES     
    3940 O          102.0486    96.7575     1.8073 O             1 RES     
    3941 O           92.8836    72.8639     1.8073 O             1 RES     
    3942 O           83.3960    89.2970     1.8073 O             1 RES     
    3943 O          111.8588    72.8639     1.8073 O             1 RES     
    3944 O          102.3712    89.2970     1.8073 O             1 RES     
    3945 O           80.2082    76.8736     1.8073 O             1 RES     
    3946 O           99.1834    76.8736     1.8073 O             1 RES     
    3947 O           89.6958    93.3066     1.8073 O             1 RES     
    3948 O          108.6710    93.3066     1.8073 O             1 RES     
    3949 O           87.7034    67.5725     5.8595 O             1 RES     
    3950 O           78.2158    84.0055     5.8595 O             1 RES     
    3951 O          106.6786    67.5725     5.8595 O             1 RES     
    3952 O           97.1910    84.0055     5.8595 O             1 RES     
    3953 O           87.3808    75.0331     5.8595 O             1 RES     
    3954 O           77.8932    91.4661     5.8595 O             1 RES     
    3955 O          106.3560    75.0331     5.8595 O             1 RES     
    3956 O           96.8684    91.4661     5.8595 O             1 RES     
    3957 O           81.0810    71.0234     5.8595 O             1 RES     
    3958 O          100.0562    71.0234     5.8595 O             1 RES     
    3959 O           90.5686    87.4565     5.8595 O             1 RES     
    3960 O          109.5438    87.4565     5.8595 O             1 RES     
    3961 O           83.0070    67.5561     2.0666 O             1 RES     
    3962 O          101.9822    67.5561     2.0666 O             1 RES     
    3963 O           92.4946    83.9891     2.0666 O             1 RES     
    3964 O          111.4698    83.9891     2.0666 O             1 RES     
    3965 O           89.7432    70.9741     2.0666 O             1 RES     
    3966 O           80.2556    87.4072     2.0666 O             1 RES     
    3967 O          108.7184    70.9741     2.0666 O             1 RES     
    3968 O           99.2308    87.4072     2.0666 O             1 RES     
    3969 O           83.4150    75.0988     2.0666 O             1 RES     
    3970 O          102.3902    75.0988     2.0666 O             1 RES     
    3971 O           92.9026    91.5318     2.0666 O             1 RES     
    3972 O          111.8778    91.5318     2.0666 O             1 RES     
    3973 O           78.2822    80.3410     6.1188 O             1 RES     
    3974 O           97.2574    80.3410     6.1188 O             1 RES     
    3975 O           87.7698    96.7740     6.1188 O             1 RES     
    3976 O          106.7450    96.7740     6.1188 O             1 RES     
    3977 O           90.5212    76.9229     6.1188 O             1 RES     
    3978 O           81.0336    93.3559     6.1188 O             1 RES     
    3979 O          109.4964    76.9229     6.1188 O             1 RES     
    3980 O          100.0088    93.3559     6.1188 O             1 RES     
    3981 O           77.8742    72.7982     6.1188 O             1 RES     
    3982 O           96.8494    72.7982     6.1188 O             1 RES     
    3983 O           87.3618    89.2312     6.1188 O             1 RES     
    3984 O          106.3370    89.2312     6.1188 O             1 RES     
    3985 O           77.3619    80.9490     2.1396 O             1 RES     
    3986 O           96.3371    80.9490     2.1396 O             1 RES     
    3987 O           86.8495    97.3820     2.1396 O             1 RES     
    3988 O          105.8247    97.3820     2.1396 O             1 RES     
    3989 O           90.4548    75.8219     2.1396 O             1 RES     
    3990 O           80.9672    92.2549     2.1396 O             1 RES     
    3991 O          109.4300    75.8219     2.1396 O             1 RES     
    3992 O           99.9424    92.2549     2.1396 O             1 RES     
    3993 O           78.8609    73.2912     2.1396 O             1 RES     
    3994 O           97.8361    73.2912     2.1396 O             1 RES     
    3995 O           88.3485    89.7242     2.1396 O             1 RES     
    3996 O          107.3237    89.7242     2.1396 O             1 RES     
    3997 O           83.9273    66.9481     6.1918 O             1 RES     
    3998 O          102.9025    66.9481     6.1918 O             1 RES     
    3999 O           93.4149    83.3811     6.1918 O             1 RES     
    4000 O          112.3901    83.3811     6.1918 O             1 RES     
    4001 O           89.8096    72.0752     6.1918 O             1 RES     
    4002 O           80.3220    88.5082     6.1918 O             1 RES     
    4003 O          108.7848    72.0752     6.1918 O             1 RES     
    4004 O           99.2972    88.5082     6.1918 O             1 RES     
    4005 O           82.4283    74.6058     6.1918 O             1 RES     
    4006 O          101.4035    74.6058     6.1918 O             1 RES     
    4007 O           91.9159    91.0389     6.1918 O             1 RES     
    4008 O          110.8911    91.0389     6.1918 O             1 RES     
    4009 O           86.9633    66.9152     2.2530 O             1 RES     
    4010 O           77.4757    83.3482     2.2530 O             1 RES     
    4011 O          105.9385    66.9152     2.2530 O             1 RES     
    4012 O           96.4509    83.3482     2.2530 O             1 RES     
    4013 O           88.3201    74.7209     2.2530 O             1 RES     
    4014 O           78.8325    91.1539     2.2530 O             1 RES     
    4015 O          107.2953    74.7209     2.2530 O             1 RES     
    4016 O           97.8077    91.1539     2.2530 O             1 RES     
    4017 O           80.8818    71.9930     2.2530 O             1 RES     
    4018 O           99.8570    71.9930     2.2530 O             1 RES     
    4019 O           90.3694    88.4260     2.2530 O             1 RES     
    4020 O          109.3446    88.4260     2.2530 O             1 RES     
    4021 O           93.3011    80.9818     6.3052 O             1 RES     
    4022 O           83.8135    97.4149     6.3052 O             1 RES     
    4023 O          112.2763    80.9818     6.3052 O             1 RES     
    4024 O          102.7887    97.4149     6.3052 O             1 RES     
    4025 O           91.9443    73.1762     6.3052 O             1 RES     
    4026 O           82.4567    89.6092     6.3052 O             1 RES     
    4027 O          110.9195    73.1762     6.3052 O             1 RES     
    4028 O          101.4319    89.6092     6.3052 O             1 RES     
    4029 O           80.4074    75.9041     6.3052 O             1 RES     
    4030 O           99.3826    75.9041     6.3052 O             1 RES     
    4031 O           89.8950    92.3371     6.3052 O             1 RES     
    4032 O          108.8702    92.3371     6.3052 O             1 RES     
    4033 O           78.3201    78.3690     2.2692 O             1 RES     
    4034 O           97.2953    78.3690     2.2692 O             1 RES     
    4035 O           87.8077    94.8020     2.2692 O             1 RES     
    4036 O          106.7829    94.8020     2.2692 O             1 RES     
    4037 O           92.2100    77.9417     2.2692 O             1 RES     
    4038 O           82.7224    94.3748     2.2692 O             1 RES     
    4039 O          111.1852    77.9417     2.2692 O             1 RES     
    4040 O          101.6976    94.3748     2.2692 O             1 RES     
    4041 O           76.1475    73.7513     2.2692 O             1 RES     
    4042 O           95.1227    73.7513     2.2692 O             1 RES     
    4043 O           85.6351    90.1843     2.2692 O             1 RES     
    4044 O          104.6103    90.1843     2.2692 O             1 RES     
    4045 O           82.9691    69.5280     6.3214 O             1 RES     
    4046 O          101.9443    69.5280     6.3214 O             1 RES     
    4047 O           92.4567    85.9611     6.3214 O             1 RES     
    4048 O          111.4319    85.9611     6.3214 O             1 RES     
    4049 O           88.0544    69.9553     6.3214 O             1 RES     
    4050 O           78.5668    86.3883     6.3214 O             1 RES     
    4051 O          107.0296    69.9553     6.3214 O             1 RES     
    4052 O           97.5420    86.3883     6.3214 O             1 RES     
    4053 O           85.1417    74.1457     6.3214 O             1 RES     
    4054 O          104.1169    74.1457     6.3214 O             1 RES     
    4055 O           94.6293    90.5787     6.3214 O             1 RES     
    4056 O          113.6045    90.5787     6.3214 O             1 RES     
    4057 O           94.5155    78.7798     2.2692 O             1 RES     
    4058 O           85.0279    95.2128     2.2692 O             1 RES     
    4059 O          113.4907    78.7798     2.2692 O             1 RES     
    4060 O          104.0031    95.2128     2.2692 O             1 RES     
    4061 O           93.2441    75.3289     2.2692 O             1 RES     
    4062 O           83.7565    91.7619     2.2692 O             1 RES     
    4063 O          112.2193    75.3289     2.2692 O             1 RES     
    4064 O          102.7317    91.7619     2.2692 O             1 RES     
    4065 O           77.8932    75.9534     2.2692 O             1 RES     
    4066 O           96.8684    75.9534     2.2692 O             1 RES     
    4067 O           87.3808    92.3864     2.2692 O             1 RES     
    4068 O          106.3560    92.3864     2.2692 O             1 RES     
    4069 O           85.7489    69.1172     6.3214 O             1 RES     
    4070 O           76.2613    85.5502     6.3214 O             1 RES     
    4071 O          104.7241    69.1172     6.3214 O             1 RES     
    4072 O           95.2365    85.5502     6.3214 O             1 RES     
    4073 O           87.0203    72.5682     6.3214 O             1 RES     
    4074 O           77.5327    89.0012     6.3214 O             1 RES     
    4075 O          105.9955    72.5682     6.3214 O             1 RES     
    4076 O           96.5079    89.0012     6.3214 O             1 RES     
    4077 O           83.3960    71.9437     6.3214 O             1 RES     
    4078 O          102.3712    71.9437     6.3214 O             1 RES     
    4079 O           92.8836    88.3767     6.3214 O             1 RES     
    4080 O          111.8588    88.3767     6.3214 O             1 RES     
    4081 O           77.0678    79.2893     7.9828 O             1 RES     
    4082 O           96.0430    79.2893     7.9828 O             1 RES     
    4083 O           86.5554    95.7223     7.9828 O             1 RES     
    4084 O          105.5306    95.7223     7.9828 O             1 RES     
    4085 O           92.0392    76.3970     7.9828 O             1 RES     
    4086 O           82.5516    92.8300     7.9828 O             1 RES     
    4087 O          111.0144    76.3970     7.9828 O             1 RES     
    4088 O          101.5268    92.8300     7.9828 O             1 RES     
    4089 O           77.5706    74.3758     7.9828 O             1 RES     
    4090 O           96.5458    74.3758     7.9828 O             1 RES     
    4091 O           87.0582    90.8088     7.9828 O             1 RES     
    4092 O          106.0334    90.8088     7.9828 O             1 RES     
    4093 O           84.2214    68.6078     3.9306 O             1 RES     
    4094 O          103.1966    68.6078     3.9306 O             1 RES     
    4095 O           93.7090    85.0408     3.9306 O             1 RES     
    4096 O          112.6842    85.0408     3.9306 O             1 RES     
    4097 O           88.2252    71.5000     3.9306 O             1 RES     
    4098 O           78.7376    87.9330     3.9306 O             1 RES     
    4099 O          107.2004    71.5000     3.9306 O             1 RES     
    4100 O           97.7128    87.9330     3.9306 O             1 RES     
    4101 O           83.7186    73.5213     3.9306 O             1 RES     
    4102 O          102.6938    73.5213     3.9306 O             1 RES     
    4103 O           93.2062    89.9543     3.9306 O             1 RES     
    4104 O          112.1814    89.9543     3.9306 O             1 RES     
    4105 O           92.8836    79.4043     4.0522 O             1 RES     
    4106 O           83.3960    95.8373     4.0522 O             1 RES     
    4107 O          111.8588    79.4043     4.0522 O             1 RES     
    4108 O          102.3712    95.8373     4.0522 O             1 RES     
    4109 O           93.5193    73.6034     4.0522 O             1 RES     
    4110 O           84.0317    90.0364     4.0522 O             1 RES     
    4111 O          112.4945    73.6034     4.0522 O             1 RES     
    4112 O          103.0069    90.0364     4.0522 O             1 RES     
    4113 O           79.2499    77.0544     4.0522 O             1 RES     
    4114 O           98.2251    77.0544     4.0522 O             1 RES     
    4115 O           88.7375    93.4874     4.0522 O             1 RES     
    4116 O          107.7127    93.4874     4.0522 O             1 RES     
    4117 O           87.3808    68.4928     0.0000 O             1 RES     
    4118 O           87.3808    68.4928     8.1044 O             1 RES     
    4119 O           77.8932    84.9258     0.0000 O             1 RES     
    4120 O           77.8932    84.9258     8.1044 O             1 RES     
    4121 O          106.3560    68.4928     0.0000 O             1 RES     
    4122 O          106.3560    68.4928     8.1044 O             1 RES     
    4123 O           96.8684    84.9258     0.0000 O             1 RES     
    4124 O           96.8684    84.9258     8.1044 O             1 RES     
    4125 O           86.7451    74.2936     0.0000 O             1 RES     
    4126 O           86.7451    74.2936     8.1044 O             1 RES     
    4127 O           77.2575    90.7266     0.0000 O             1 RES     
    4128 O           77.2575    90.7266     8.1044 O             1 RES     
    4129 O          105.7203    74.2936     0.0000 O             1 RES     
    4130 O          105.7203    74.2936     8.1044 O             1 RES     
    4131 O           96.2327    90.7266     0.0000 O             1 RES     
    4132 O           96.2327    90.7266     8.1044 O             1 RES     
    4133 O           82.0393    70.8427     0.0000 O             1 RES     
    4134 O           82.0393    70.8427     8.1044 O             1 RES     
    4135 O          101.0145    70.8427     0.0000 O             1 RES     
    4136 O          101.0145    70.8427     8.1044 O             1 RES     
    4137 O           91.5269    87.2757     0.0000 O             1 RES     
    4138 O           91.5269    87.2757     8.1044 O             1 RES     
    4139 O          110.5021    87.2757     0.0000 O             1 RES     
    4140 O          110.5021    87.2757     8.1044 O             1 RES     
    4141 O           84.9615    68.9365     1.6047 O             1 RES     
    4142 O          103.9367    68.9365     1.6047 O             1 RES     
    4143 O           94.4491    85.3695     1.6047 O             1 RES     
    4144 O          113.4243    85.3695     1.6047 O             1 RES     
    4145 O           87.5705    71.9766     1.6047 O             1 RES     
    4146 O           78.0829    88.4096     1.6047 O             1 RES     
    4147 O          106.5457    71.9766     1.6047 O             1 RES     
    4148 O           97.0581    88.4096     1.6047 O             1 RES     
    4149 O           83.6332    72.7160     1.6047 O             1 RES     
    4150 O          102.6084    72.7160     1.6047 O             1 RES     
    4151 O           93.1208    89.1491     1.6047 O             1 RES     
    4152 O          112.0960    89.1491     1.6047 O             1 RES     
    4153 O           76.3277    78.9606     5.6569 O             1 RES     
    4154 O           95.3029    78.9606     5.6569 O             1 RES     
    4155 O           85.8153    95.3936     5.6569 O             1 RES     
    4156 O          104.7905    95.3936     5.6569 O             1 RES     
    4157 O           92.6939    75.9205     5.6569 O             1 RES     
    4158 O           83.2063    92.3535     5.6569 O             1 RES     
    4159 O          111.6691    75.9205     5.6569 O             1 RES     
    4160 O          102.1815    92.3535     5.6569 O             1 RES     
    4161 O           77.6560    75.1810     5.6569 O             1 RES     
    4162 O           96.6312    75.1810     5.6569 O             1 RES     
    4163 O           87.1436    91.6140     5.6569 O             1 RES     
    4164 O          106.1188    91.6140     5.6569 O             1 RES     
    4165 O           87.6844    69.6102     2.5529 O             1 RES     
    4166 O           78.1968    86.0432     2.5529 O             1 RES     
    4167 O          106.6596    69.6102     2.5529 O             1 RES     
    4168 O           97.1720    86.0432     2.5529 O             1 RES     
    4169 O           85.6256    73.9978     2.5529 O             1 RES     
    4170 O           76.1380    90.4308     2.5529 O             1 RES     
    4171 O          104.6008    73.9978     2.5529 O             1 RES     
    4172 O           95.1132    90.4308     2.5529 O             1 RES     
    4173 O           82.8552    70.0210     2.5529 O             1 RES     
    4174 O          101.8304    70.0210     2.5529 O             1 RES     
    4175 O           92.3428    86.4540     2.5529 O             1 RES     
    4176 O          111.3180    86.4540     2.5529 O             1 RES     
    4177 O           92.5800    78.2868     6.6051 O             1 RES     
    4178 O           83.0924    94.7198     6.6051 O             1 RES     
    4179 O          111.5552    78.2868     6.6051 O             1 RES     
    4180 O          102.0676    94.7198     6.6051 O             1 RES     
    4181 O           94.6388    73.8992     6.6051 O             1 RES     
    4182 O           85.1512    90.3322     6.6051 O             1 RES     
    4183 O          113.6140    73.8992     6.6051 O             1 RES     
    4184 O          104.1264    90.3322     6.6051 O             1 RES     
    4185 O           78.4340    77.8760     6.6051 O             1 RES     
    4186 O           97.4092    77.8760     6.6051 O             1 RES     
    4187 O           87.9216    94.3090     6.6051 O             1 RES     
    4188 O          106.8968    94.3090     6.6051 O             1 RES     
    4189 O           77.0678    79.2893    -0.1216 O             1 RES     
    4190 O           96.0430    79.2893    -0.1216 O             1 RES     
    4191 O           86.5554    95.7223    -0.1216 O             1 RES     
    4192 O          105.5306    95.7223    -0.1216 O             1 RES     
    4193 O           92.0392    76.3970    -0.1216 O             1 RES     
    4194 O           82.5516    92.8300    -0.1216 O             1 RES     
    4195 O          111.0144    76.3970    -0.1216 O             1 RES     
    4196 O          101.5268    92.8300    -0.1216 O             1 RES     
    4197 O           77.5706    74.3758    -0.1216 O             1 RES     
    4198 O           96.5458    74.3758    -0.1216 O             1 RES     
    4199 O           87.0582    90.8088    -0.1216 O             1 RES     
    4200 O          106.0334    90.8088    -0.1216 O             1 RES     
    4201 O           83.9937    65.8799     8.4043 O             1 RES     
    4202 O          102.9689    65.8799     8.4043 O             1 RES     
    4203 O           93.4813    82.3129     8.4043 O             1 RES     
    4204 O          112.4565    82.3129     8.4043 O             1 RES     
    4205 O           90.7015    72.6667     8.4043 O             1 RES     
    4206 O           81.2139    89.0998     8.4043 O             1 RES     
    4207 O          109.6767    72.6667     8.4043 O             1 RES     
    4208 O          100.1891    89.0998     8.4043 O             1 RES     
    4209 O           81.4700    75.0824     8.4043 O             1 RES     
    4210 O          100.4452    75.0824     8.4043 O             1 RES     
    4211 O           90.9576    91.5154     8.4043 O             1 RES     
    4212 O          109.9328    91.5154     8.4043 O             1 RES     
@<TRIPOS>BOND
       1     2918     3014 1
       2      598      895 1
       3     1991     2207 1
       4     2865     3081 1
       5      991     1363 1
       6     2005     2313 1
       7     2944     3220 1
       8     2454     2550 1
       9     2478     2574 1
      10     3876     3972 1
      11       68      416 1
      12     1015     1207 1
      13     3748     3940 1
      14     1062     1338 1
      15     2009     2305 1
      16     3872     4168 1
      17     1949     2141 1
      18     1078     1373 1
      19     1421     1637 1
      20     3794     4010 1
      21     3849     4065 1
      22     1021     1189 1
      23     2381     2645 1
      24     1507     3105 1
      25     3303     3723 1
      26     3387     3483 1
      27     1480     1588 1
      28     1518     1788 1
      29     3764     3908 1
      30      124      352 1
      31     3841     4105 1
      32     2365     2785 1
      33       71      419 1
      34     1951     2143 1
      35     2914     3010 1
      36      113      329 1
      37     1454     1779 1
      38     1471     1687 1
      39     1543     1747 1
      40     2869     3085 1
      41     2391     2763 1
      42     3847     4111 1
      43     1023     1191 1
      44     2366     2786 1
      45     3286     3454 1
      46       72      420 1
      47      561      933 1
      48      581      850 1
      49     2857     3229 1
      50       91      463 1
      51     1931     2303 1
      52     3833     4205 1
      53     1511     1727 1
      54     3309     3525 1
      55      548      740 1
      56     1882     2074 1
      57     3388     3584 1
      58     1422     1566 1
      59     2849     3161 1
      60     2867     3083 1
      61      135      443 1
      62      990     1338 1
      63     2846     3135 1
      64       89      461 1
      65     1954     2122 1
      66     1484     1592 1
      67      103     1701 1
      68      994     1366 1
      69     1428     1572 1
      70     1067     1163 1
      71     3407     3704 1
      72     1547     1751 1
      73      592      688 1
      74     1030     1102 1
      75       83      251 1
      76     3869     4097 1
      77     1494     1866 1
      78     1542     1638 1
      79     2946     3042 1
      80     3281     3449 1
      81     1453     1669 1
      82     1464     1812 1
      83     1502     1598 1
      84      147        1 1
      85     1488     1596 1
      86     2395     2611 1
      87     2443     2659 1
      88      494      758 1
      89      513      777 1
      90     3364     3532 1
      91     1410     1626 1
      92     2479     2755 1
      93     2814     3030 1
      94      605      809 1
      95     1965     2157 1
      96     2484     2760 1
      97      538      838 1
      98      599      896 1
      99     2362     2506 1
     100      515      779 1
     101      498      918 1
     102     2942     3038 1
     103     1882     2026 1
     104       69      441 1
     105     1405     1575 1
     106      592      820 1
     107     3747     3892 1
     108      113      209 1
     109     1525     1833 1
     110     1427     1619 1
     111     2937     3165 1
     112     2850     3114 1
     113     3311     3731 1
     114     1938     2154 1
     115     3336     3552 1
     116       95      263 1
     117     1407     1624 1
     118     1876     2510 1
     119      536      884 1
     120     3788     4076 1
     121     2876     3176 1
     122     2812     3446 1
     123     2420     2492 1
     124     1410     1578 1
     125     3805     4105 1
     126     1994     2222 1
     127     2455     2726 1
     128     1033     1249 1
     129     2876     3092 1
     130      489      681 1
     131     1043     1139 1
     132     3351     4009 1
     133     3409     3685 1
     134     1069     1377 1
     135     3395     3670 1
     136     2401     2773 1
     137       41      257 1
     138     1479     2137 1
     139     3340     3688 1
     140       62      362 1
     141     2380     2692 1
     142      473      641 1
     143      130      406 1
     144      967     1255 1
     145      487      679 1
     146     1034     1230 1
     147     3805     4177 1
     148      569      766 1
     149     3325     3541 1
     150     2447     2711 1
     151       72      444 1
     152      485      677 1
     153     1891     2083 1
     154     1541     1637 1
     155     2947     3043 1
     156      973     1285 1
     157     2424     2496 1
     158     3822     3894 1
     159       33      321 1
     160     1070     1378 1
     161       49      265 1
     162     2938     3214 1
     163     3413     3689 1
     164      489      657 1
     165     3810     4110 1
     166      543      651 1
     167     2361     2529 1
     168      567      763 1
     169      528      876 1
     170     1051     1147 1
     171     3402     3498 1
     172     1470     1770 1
     173     1877     2045 1
     174     2444     2540 1
     175     3411     3687 1
     176     2824     3038 1
     177     1540     1744 1
     178     3879     4083 1
     179     1023     1094 1
     180     3314     3603 1
     181     3299     3515 1
     182     3279     3448 1
     183     3389     3658 1
     184     3388     3656 1
     185     3761     3905 1
     186     2411     2627 1
     187     3289     3481 1
     188     2855     3143 1
     189     1968     2160 1
     190     3365     3557 1
     191       49      397 1
     192       71      371 1
     193      536      908 1
     194     3850     4114 1
     195       53      381 1
     196     3822     3990 1
     197     1007     1223 1
     198     1476     1692 1
     199     3303     3519 1
     200     1411     1579 1
     201     1508     1704 1
     202     2032     2355 1
     203      482      649 1
     204       63      363 1
     205     1474     1822 1
     206     1933     2305 1
     207       52      424 1
     208     3777     4197 1
     209       84      192 1
     210     1478     1646 1
     211     2352     2568 1
     212     1022     1394 1
     213     3355     3427 1
     214     2454     2670 1
     215     3314     3530 1
     216     2375     2663 1
     217     2833     3253 1
     218      552      624 1
     219     2943     3147 1
     220     3327     3653 1
     221      583      854 1
     222      953     1169 1
     223     3755     3947 1
     224     3410     3506 1
     225     2464     2692 1
     226     1890     2082 1
     227     2354     2546 1
     228     2377     2641 1
     229     3775     4039 1
     230     2376     2640 1
     231     3871     4167 1
     232       21      189 1
     233     3754     3922 1
     234     3845     3941 1
     235      114      210 1
     236     2488     3817 1
     237      181       14 1
     238      970     1390 1
     239       46      334 1
     240      544      652 1
     241     1461     1809 1
     242     3406     3502 1
     243       26      290 1
     244      500      764 1
     245      948     1092 1
     246     1914     2202 1
     247      528      863 1
     248      439     1545 1
     249     3799     4015 1
     250     1906     2122 1
     251       36      324 1
     252     2934     3030 1
     253     1490     1658 1
     254      958     1174 1
     255     3809     4025 1
     256      161       17 1
     257     1538     1846 1
     258     3391     3607 1
     259     3841     4037 1
     260      944     1136 1
     261     3873     3969 1
     262     1028     1400 1
     263     3770     4057 1
     264     2016     2292 1
     265       37      253 1
     266      960     1176 1
     267     3811     4027 1
     268     3390     3606 1
     269     3315     3627 1
     270      496      784 1
     271     2349     2493 1
     272     1521     1617 1
     273     1458     1806 1
     274      612      888 1
     275     2445     2709 1
     276      546      618 1
     277      121      217 1
     278      748     1022 1
     279     2840     3128 1
     280      534      882 1
     281     3350     3458 1
     282     2935     3211 1
     283       26      446 1
     284     3344     3716 1
     285     1007     1355 1
     286     1047     1143 1
     287     1937     2285 1
     288       51      423 1
     289      582      798 1
     290     2992     3291 1
     291     3378     3594 1
     292      948     1116 1
     293     2417     2525 1
     294     3352     3460 1
     295     2431     2623 1
     296     3800     4172 1
     297     2393     2721 1
     298     1052     1268 1
     299     2458     2674 1
     300     2832     3048 1
     301     2740     3794 1
     302      627      949 1
     303     3847     4063 1
     304     1416     1560 1
     305     1934     2150 1
     306     1483     1651 1
     307     3310     3598 1
     308     1523     1798 1
     309     3866     4094 1
     310       97      193 1
     311      498      714 1
     312     2834     3050 1
     313     2836     3124 1
     314     2824     2990 1
     315      130      226 1
     316     2483     2778 1
     317     3807     4179 1
     318      508      820 1
     319     3320     3536 1
     320     3292     3506 1
     321     2446     2630 1
     322      968     1388 1
     323     1927     2299 1
     324     3752     3896 1
     325     3837     4209 1
     326     2014     2309 1
     327     1420     1612 1
     328     1901     2321 1
     329     2346     2514 1
     330     1981     2077 1
     331     1510     1774 1
     332     1068     1344 1
     333      991     1321 1
     334      588      684 1
     335     2363     2531 1
     336     1921     2293 1
     337     2871     3087 1
     338     2818     2986 1
     339     2440     2704 1
     340     3332     3663 1
     341      939     1131 1
     342     3295     3487 1
     343     1449     1713 1
     344     2900     3068 1
     345     1055     1239 1
     346     1429     1849 1
     347     2447     2543 1
     348     2442     2706 1
     349     3880     3976 1
     350     3403     3679 1
     351      982     1246 1
     352     3321     3609 1
     353     3770     4034 1
     354     1027     1399 1
     355     2467     2763 1
     356     2453     2549 1
     357     1962     2130 1
     358     3360     3528 1
     359       47      311 1
     360     1414     1582 1
     361     1919     2207 1
     362      151        7 1
     363     1900     2116 1
     364     1418     1561 1
     365      100      196 1
     366     1019     1127 1
     367     1017     1209 1
     368     1434     1698 1
     369     2942     3250 1
     370      545      617 1
     371     2864     3080 1
     372     1411     1627 1
     373     1903     2119 1
     374     1919     2135 1
     375     3793     4009 1
     376     2928     3144 1
     377     3848     4064 1
     378     1013     1181 1
     379     2457     2641 1
     380     2907     3003 1
     381     2931     3027 1
     382     2352     2496 1
     383     2476     2784 1
     384     2820     3036 1
     385     2451     2547 1
     386     3857     3953 1
     387     1059     1367 1
     388     2835     3099 1
     389     3282     3450 1
     390     2378     2642 1
     391     3774     4038 1
     392      578      794 1
     393     2459     2675 1
     394     2833     3049 1
     395     3795     4011 1
     396     1066     1363 1
     397     3374     3590 1
     398     1015     1183 1
     399     3846     4062 1
     400       54      383 1
     401     1038     1134 1
     402     1461     1793 1
     403     1505     1601 1
     404     3313     3601 1
     405     3326     3651 1
     406     2850     3162 1
     407      992     1208 1
     408     2868     3084 1
     409     2942     3146 1
     410     3775     3991 1
     411     3851     4067 1
     412      545      713 1
     413     1880     2048 1
     414       34      250 1
     415     2370     2586 1
     416     2909     3125 1
     417     2398     2731 1
     418       58      274 1
     419     1881     2049 1
     420     3863     4047 1
     421     2417     2609 1
     422     3768     3960 1
     423     3777     3993 1
     424      575      791 1
     425     3860     4055 1
     426     1480     2018 1
     427     3300     3444 1
     428     3883     4087 1
     429     2860     3187 1
     430     2388     2604 1
     431       18      186 1
     432     1915     2227 1
     433     3826     4018 1
     434     1896     2064 1
     435     3357     3525 1
     436     3416     3712 1
     437     3747     3964 1
     438      149       77 1
     439      996     1212 1
     440     1970     2166 1
     441      970     1258 1
     442       80      248 1
     443       16      230 1
     444     3368     3536 1
     445       54      270 1
     446      567      831 1
     447     2350     2494 1
     448     3348     3648 1
     449     1493     1565 1
     450      571      787 1
     451      502      922 1
     452      966     1230 1
     453      589      817 1
     454     2000     2296 1
     455      158       87 1
     456     2360     2528 1
     457     3346     3646 1
     458      516      780 1
     459     1406     2089 1
     460     3402     3698 1
     461     2906     3122 1
     462        7      223 1
     463     1021     1393 1
     464     3772     4192 1
     465     1455     1781 1
     466      183      481 1
     467      571     2169 1
     468     2859     3206 1
     469     3372     3540 1
     470     2937     3213 1
     471     1965     2133 1
     472      123      431 1
     473      593      821 1
     474       31      295 1
     475      112      208 1
     476      176        8 1
     477     1969     2065 1
     478     2419     2527 1
     479     1030     1402 1
     480     1039     1135 1
     481      975     1264 1
     482     2480     2576 1
     483       35      455 1
     484     1481     1673 1
     485     3379     3475 1
     486     2394     2766 1
     487     3864     4080 1
     488     1427     1643 1
     489     3301     3517 1
     490      503      791 1
     491      943     1087 1
     492       11      227 1
     493     2825     2969 1
     494     1501     1697 1
     495       45      357 1
     496     1489     1861 1
     497     2459     2734 1
     498     2368     2632 1
     499      472     1106 1
     500      566      662 1
     501     1976     2192 1
     502     1412     1604 1
     503     1029     1197 1
     504     2383     2671 1
     505     3783     3999 1
     506     1961     2033 1
     507     1407     1552 1
     508      479      647 1
     509     2438     2634 1
     510     3350     3423 1
     511      603      911 1
     512     1538     1814 1
     513     2867     3201 1
     514     3883     4159 1
     515     3375     3471 1
     516     1000     1348 1
     517     1979     2075 1
     518     3330     3678 1
     519     2836     3100 1
     520      144      348 1
     521     1423     1639 1
     522     1684     1958 1
     523      499      763 1
     524     1031     1199 1
     525     3783     4095 1
     526     2367     2654 1
     527     2820     2988 1
     528     2442     2639 1
     529     1527     1755 1
     530     3387     3583 1
     531     2932     3208 1
     532     3879     4155 1
     533     1048     1144 1
     534     2433     2625 1
     535     3752     3944 1
     536      501      765 1
     537     3814     4114 1
     538     1074     1170 1
     539     3351     3459 1
     540     3856     4124 1
     541     2374     2794 1
     542     2404     2620 1
     543     3887     4163 1
     544       18      234 1
     545     2347     2563 1
     546     1955     2063 1
     547     1458     1787 1
     548      969     1185 1
     549     2928     3112 1
     550      969     1233 1
     551     2398     2770 1
     552      516      804 1
     553     1515     1711 1
     554     3401     3497 1
     555     1440     1704 1
     556     3828     3996 1
     557      565      781 1
     558      551      719 1
     559     1025     1217 1
     560      598      874 1
     561     3886     4162 1
     562      513      729 1
     563      611      887 1
     564      117      213 1
     565     3324     3636 1
     566     2418     2586 1
     567       60      432 1
     568     1967     2159 1
     569     2008     2212 1
     570     3367     3439 1
     571     2467     2695 1
     572     1409     1577 1
     573     1472     1820 1
     574     2055     2353 1
     575      141      345 1
     576     2947     3151 1
     577      510      798 1
     578     1911     2200 1
     579     3861     3957 1
     580       49      373 1
     581      963     1250 1
     582     2847     3063 1
     583     2395     2743 1
     584     3801     4149 1
     585      124      400 1
     586      494      781 1
     587       76      184 1
     588       78      246 1
     589     2427     2498 1
     590     3304     3592 1
     591     2912     3108 1
     592     1066     1162 1
     593     2389     2737 1
     594     1948     2486 1
     595     1564     1887 1
     596     1437     1725 1
     597     1467     1683 1
     598     2444     2660 1
     599     2015     2219 1
     600      603      699 1
     601     1064     1160 1
     602     3329     3677 1
     603     3308     3728 1
     604     1422     1638 1
     605     1973     2189 1
     606     1437     1857 1
     607      482      674 1
     608     3874     4102 1
     609     1924     2140 1
     610      552      744 1
     611     1886     2078 1
     612     2000     2228 1
     613     2809     2955 1
     614      128      404 1
     615     2830     3046 1
     616     1992     2268 1
     617        2      685 1
     618     2967     3361 1
     619     1947     2055 1
     620     2433     2805 1
     621     1070     1346 1
     622     2368     2788 1
     623      550      742 1
     624     1998     2226 1
     625     2012     2308 1
     626       42      330 1
     627     2358     2526 1
     628      142      346 1
     629      527      743 1
     630     1448     1664 1
     631     1969     2185 1
     632     1917     2181 1
     633     3381     3477 1
     634     2817     2985 1
     635     1535     1763 1
     636     1911     2127 1
     637     2919     3135 1
     638      117      333 1
     639     1072     1348 1
     640      608      812 1
     641     3749     3941 1
     642     1459     1807 1
     643     1961     2333 1
     644      552      720 1
     645     1407     1576 1
     646     1001     1373 1
     647     3348     3720 1
     648     1908     2172 1
     649     3322     3586 1
     650     1996     2092 1
     651     1937     2153 1
     652     1074     1350 1
     653     1004     1352 1
     654     1512     1608 1
     655     2004     2100 1
     656      531     2281 1
     657       50      422 1
     658     3863     4079 1
     659      470     1105 1
     660     1432     1720 1
     661      103      367 1
     662     2403     2703 1
     663      587      803 1
     664     3383     3599 1
     665       30      318 1
     666     1064     1360 1
     667     1906     2170 1
     668     1464     1799 1
     669     3377     3473 1
     670     2923     3139 1
     671     3858     4128 1
     672     2453     2722 1
     673      979     1195 1
     674     2915     3131 1
     675       90      462 1
     676     1929     2277 1
     677     3374     3470 1
     678     1909     2221 1
     679     3849     4033 1
     680     1057     1153 1
     681     2873     3221 1
     682     3871     3967 1
     683     1965     2337 1
     684      529      745 1
     685     3803     4175 1
     686     1500     1692 1
     687     1910     2222 1
     688      125      421 1
     689      964     1252 1
     690     1937     2309 1
     691     3786     4098 1
     692      979     1291 1
     693     1493     1661 1
     694     1923     2139 1
     695     1504     1768 1
     696     1635     1885 1
     697     2839     3103 1
     698     3809     4181 1
     699     3823     3991 1
     700      964     1384 1
     701     1881     2097 1
     702     2655     3769 1
     703     2848     3112 1
     704      987     1203 1
     705     1904     2324 1
     706     2350     2518 1
     707     3881     3977 1
     708       68      368 1
     709     3328     3700 1
     710     2345     2489 1
     711     3780     4044 1
     712      131      227 1
     713     1408     2018 1
     714      954     1122 1
     715     3279     3424 1
     716     3867     3963 1
     717      122      430 1
     718     1979     2243 1
     719     2831     3023 1
     720     3296     3464 1
     721     3360     3432 1
     722     2015     2310 1
     723     3834     4026 1
     724     1886     2029 1
     725     2873     3089 1
     726     2006     2210 1
     727     3460     3759 1
     728     2001     2097 1
     729     2446     2542 1
     730     3399     3675 1
     731     1031     1403 1
     732     3773     3989 1
     733      527      861 1
     734     1977     2241 1
     735     3277     3495 1
     736     1509     1773 1
     737      989     1317 1
     738       64      280 1
     739     2408     2780 1
     740       12      204 1
     741      980     1244 1
     742      537      909 1
     743     1059     1287 1
     744     2004     2232 1
     745     1896     2112 1
     746     1054     1328 1
     747     1426     1618 1
     748      958     1126 1
     749     1449     1737 1
     750     1430     1717 1
     751     2409     2781 1
     752       99      195 1
     753     3337     3686 1
     754     2935     3031 1
     755       84      276 1
     756       59      407 1
     757      312     1518 1
     758     3866     4142 1
     759      131      359 1
     760     3888     4164 1
     761     2836     3256 1
     762     1494     1566 1
     763     1444     1756 1
     764     2914     3130 1
     765       72      288 1
     766     2906     3170 1
     767     1062     1358 1
     768     3337     3637 1
     769     3321     3633 1
     770     2839     3259 1
     771     1536     1632 1
     772     3419     3714 1
     773     1479     2017 1
     774     2448     2632 1
     775     3745     3891 1
     776     1500     1572 1
     777      966     1182 1
     778     2927     3143 1
     779      950     1093 1
     780     1414     1558 1
     781     1418     1585 1
     782      102      318 1
     783     2831     2975 1
     784      577      773 1
     785      541      709 1
     786     1507     1603 1
     787     1484     1652 1
     788     3345     3717 1
     789      509      821 1
     790     2431     2803 1
     791     2876     3248 1
     792       55      427 1
     793      968     1184 1
     794     1510     1694 1
     795     1939     2155 1
     796       33      249 1
     797      600      696 1
     798      604      912 1
     799     1075     1279 1
     800     1463     1797 1
     801     1532     1628 1
     802     1952     2060 1
     803     2938     3034 1
     804     1976     2172 1
     805     3507     3757 1
     806     2941     3145 1
     807     3852     4068 1
     808      507      771 1
     809     1878     2070 1
     810      594      690 1
     811     3882     3978 1
     812     1080     1376 1
     813     2952     3156 1
     814      954     1146 1
     815     2822     2989 1
     816      518      843 1
     817     2381     2597 1
     818     2387     2603 1
     819     1563     1885 1
     820     1424     1568 1
     821     1336     2390 1
     822     1037     1234 1
     823       23      239 1
     824     3392     3587 1
     825     2411     2783 1
     826      530      830 1
     827     1507     1771 1
     828     1936     2236 1
     829     1077     1353 1
     830     1533     1829 1
     831     1460     1676 1
     832     2363     2555 1
     833      278      553 1
     834     2005     2209 1
     835     2366     2630 1
     836     1948     2056 1
     837     2908     3004 1
     838     1972     2168 1
     839     1002     1302 1
     840     2919     3015 1
     841      607      883 1
     842       81      249 1
     843     1517     1713 1
     844       18      210 1
     845       12      180 1
     846     2938     3166 1
     847     1958     2330 1
     848     2446     2662 1
     849     3781     3997 1
     850     1462     1834 1
     851     1043     1259 1
     852     3768     3984 1
     853       56      404 1
     854      484      698 1
     855     1504     1600 1
     856     1451     1715 1
     857     1527     1835 1
     858     1990     2206 1
     859     3412     3616 1
     860      132      360 1
     861     1994     2090 1
     862     1940     2312 1
     863      120      304 1
     864     1479     1587 1
     865     2826     2994 1
     866      569      665 1
     867     2006     2102 1
     868     1446     1662 1
     869     1950     2142 1
     870     1535     1631 1
     871     2418     2526 1
     872      144      420 1
     873     3302     3722 1
     874     1433     1721 1
     875     2103     2353 1
     876      496      712 1
     877     2886     3078 1
     878     2431     2599 1
     879       33      453 1
     880     1952     2144 1
     881     2867     3215 1
     882     1889     2033 1
     883     2346     2490 1
     884     2388     2676 1
     885      580      796 1
     886     2380     4070 1
     887     3342     3690 1
     888     1992     2176 1
     889     2396     2768 1
     890       51      398 1
     891     2456     2672 1
     892      496      916 1
     893     1004     1376 1
     894     3368     3560 1
     895     1499     1667 1
     896     3310     3526 1
     897     2939     3035 1
     898      512      824 1
     899     1060     1288 1
     900     1525     1801 1
     901     2012     2216 1
     902     2892     3084 1
     903     3277     3423 1
     904      503      767 1
     905     1027     1195 1
     906     2369     2633 1
     907      574      790 1
     908     3356     3428 1
     909     3811     4111 1
     910     3778     4066 1
     911     3373     3469 1
     912      514      826 1
     913      129      405 1
     914     1456     1828 1
     915     1003     1375 1
     916      118      392 1
     917      472     1082 1
     918     1052     1148 1
     919     2892     3000 1
     920     3409     3717 1
     921     1462     1678 1
     922     3372     3564 1
     923     2895     3063 1
     924     3299     3443 1
     925     1454     1670 1
     926     3413     3709 1
     927      560      752 1
     928     2003     2099 1
     929     3369     3537 1
     930     1524     1740 1
     931      593      889 1
     932     1442     1658 1
     933      471      616 1
     934     2403     2619 1
     935     3039     3289 1
     936     3297     3489 1
     937     3753     3921 1
     938     3757     3949 1
     939       51      267 1
     940       73      241 1
     941      558      750 1
     942     1032     1104 1
     943      148        3 1
     944       57      389 1
     945      515      803 1
     946     1061     1337 1
     947     3842     4106 1
     948     2427     2595 1
     949      943     1111 1
     950     1516     1712 1
     951     3400     3496 1
     952      594      870 1
     953     2854     3166 1
     954       97      361 1
     955     2967     3289 1
     956      597      893 1
     957      588      864 1
     958      522      894 1
     959      941     1133 1
     960     3293     3485 1
     961      495      711 1
     962     3345     3561 1
     963     1487     1655 1
     964      547      619 1
     965      514      730 1
     966      568      784 1
     967      584      800 1
     968     1548     1752 1
     969     3380     3644 1
     970     2868     3216 1
     971      511      799 1
     972     1930     2263 1
     973     1473     1689 1
     974     1434     1722 1
     975     2396     2744 1
     976      108      204 1
     977      610      905 1
     978      488      680 1
     979     2393     2741 1
     980       60      408 1
     981       46      358 1
     982      601      697 1
     983      959     1103 1
     984     1894     2110 1
     985     1436     1724 1
     986     2458     2642 1
     987     3325     3673 1
     988      472      664 1
     989     1409     1601 1
     990     3380     3576 1
     991     2374     2638 1
     992     2889     2997 1
     993     1993     2269 1
     994      486      678 1
     995      491      635 1
     996      131      428 1
     997     3376     3640 1
     998     2412     2784 1
     999     2903     2975 1
    1000      955     1171 1
    1001      542      650 1
    1002     3408     3504 1
    1003     2360     2552 1
    1004      942     1086 1
    1005     2834     3254 1
    1006     2875     3247 1
    1007     1466     1682 1
    1008     2373     2589 1
    1009     3326     3542 1
    1010      484      676 1
    1011      558      630 1
    1012     2450     2646 1
    1013     3810     4158 1
    1014     1016     1088 1
    1015     2809     3001 1
    1016     2861     3189 1
    1017     3850     4066 1
    1018     1443     1659 1
    1019        6      198 1
    1020     2385     2601 1
    1021      606      702 1
    1022     2414     2487 1
    1023     1538     1742 1
    1024     3362     3734 1
    1025       98      194 1
    1026     2924     3196 1
    1027     1873     2091 1
    1028     1988     2260 1
    1029     2368     2656 1
    1030     2439     2635 1
    1031       21      237 1
    1032     3825     3897 1
    1033     3796     4123 1
    1034     1992     2088 1
    1035       26      242 1
    1036     3293     3437 1
    1037      554      926 1
    1038      533      833 1
    1039     1883     2027 1
    1040     3381     3645 1
    1041     2420     2528 1
    1042     3835     3907 1
    1043      523      895 1
    1044       79      271 1
    1045     1473     1773 1
    1046     2104     2355 1
    1047     1468     1768 1
    1048      143      419 1
    1049      539      839 1
    1050     1907     2171 1
    1051     3378     3474 1
    1052     3415     3619 1
    1053     3313     3625 1
    1054     3780     4068 1
    1055     3763     3955 1
    1056      174        6 1
    1057      543     1081 1
    1058        8      200 1
    1059     2424     2532 1
    1060       70      370 1
    1061      535      907 1
    1062     2464     2772 1
    1063     2001     2297 1
    1064     1530     1806 1
    1065     1526     1622 1
    1066     3339     3711 1
    1067      182       74 1
    1068      578      774 1
    1069     3796     4168 1
    1070     1497     1665 1
    1071      955     1099 1
    1072     2406     2622 1
    1073      570      666 1
    1074     2882     2955 1
    1075     3377     3641 1
    1076     2913     3009 1
    1077     2358     2502 1
    1078       14      206 1
    1079     2461     2689 1
    1080     2838     3054 1
    1081     1518     1614 1
    1082     2813     3005 1
    1083       72      372 1
    1084     1410     1554 1
    1085      530      746 1
    1086     1903     2323 1
    1087     1015     1087 1
    1088      101      197 1
    1089     1079     1374 1
    1090     3759     3951 1
    1091     3375     3639 1
    1092     1950     2118 1
    1093      132      228 1
    1094      517      841 1
    1095     2347     2539 1
    1096     1020     1128 1
    1097     3794     4119 1
    1098      491      707 1
    1099     1042     1226 1
    1100     1967     2135 1
    1101     1905     2325 1
    1102     1989     2085 1
    1103      104      300 1
    1104      602      806 1
    1105     1047     1314 1
    1106     1077     1281 1
    1107     2402     2618 1
    1108     1682     1957 1
    1109     3854     4050 1
    1110     2868     3203 1
    1111     2474     2570 1
    1112     3419     3515 1
    1113     3809     4157 1
    1114     2931     3159 1
    1115      507      819 1
    1116     2925     3109 1
    1117      605      701 1
    1118     3878     3974 1
    1119     2469     2745 1
    1120     1470     1842 1
    1121      101      298 1
    1122     1988     2204 1
    1123     2908     3124 1
    1124     2811     2980 1
    1125      152       80 1
    1126     1422     1590 1
    1127     3854     4120 1
    1128     2435     2603 1
    1129     1005     1221 1
    1130     1065     1293 1
    1131     2872     3088 1
    1132     3771     3987 1
    1133     1019     1091 1
    1134      104      368 1
    1135     2399     2747 1
    1136     2923     3019 1
    1137       58      406 1
    1138     2343     2512 1
    1139     2362     2530 1
    1140       58      391 1
    1141     3333     3705 1
    1142     3840     4032 1
    1143      497      761 1
    1144     2419     2587 1
    1145     3881     4177 1
    1146     1408     2042 1
    1147     2449     2545 1
    1148     3836     3908 1
    1149        9      225 1
    1150     2010     2306 1
    1151     2827     2971 1
    1152     3839     4211 1
    1153     1529     1757 1
    1154       70      286 1
    1155     1426     1594 1
    1156     1920     2208 1
    1157     2477     2573 1
    1158     1438     1702 1
    1159     1540     1848 1
    1160     3750     3966 1
    1161     1433     1697 1
    1162      553      721 1
    1163      563      731 1
    1164     1906     2326 1
    1165     2837     3053 1
    1166       13      205 1
    1167      957     1149 1
    1168       62      411 1
    1169     1433     1853 1
    1170      126      354 1
    1171     1017     1125 1
    1172      577      842 1
    1173     2825     2993 1
    1174     2872     3172 1
    1175     2432     2804 1
    1176     2877     3249 1
    1177      942     1158 1
    1178     3802     4135 1
    1179       32      248 1
    1180     1525     1621 1
    1181      956     1148 1
    1182      954     1098 1
    1183       86      254 1
    1184     1025     1193 1
    1185     2871     3171 1
    1186       14      229 1
    1187     3840     3912 1
    1188       98      362 1
    1189     1519     1615 1
    1190     2414     2522 1
    1191     3875     4172 1
    1192     3886     3982 1
    1193     3772     4060 1
    1194      944     1160 1
    1195     1030     1222 1
    1196     1036     1132 1
    1197     2863     3211 1
    1198     1932     2304 1
    1199     2341     2511 1
    1200     1027     1219 1
    1201      978     1266 1
    1202      484      626 1
    1203      119      394 1
    1204      589      685 1
    1205     2384     2672 1
    1206      119      215 1
    1207     2356     2570 1
    1208     2896     3064 1
    1209     1503     1767 1
    1210     3283     3499 1
    1211     2418     2610 1
    1212     3290     3433 1
    1213     1943     2315 1
    1214     2423     2615 1
    1215     2344     2536 1
    1216       17      233 1
    1217     1516     1784 1
    1218       80      188 1
    1219      596      824 1
    1220      961     1225 1
    1221      137      413 1
    1222     1984     2080 1
    1223     3780     4200 1
    1224     2933     3229 1
    1225      569      785 1
    1226     1039     1255 1
    1227     3772     3988 1
    1228       23      191 1
    1229       43      259 1
    1230      598      826 1
    1231     1990     2086 1
    1232     1918     2230 1
    1233     2932     3240 1
    1234      959     1127 1
    1235     1429     1693 1
    1236     2926     3200 1
    1237     2473     2677 1
    1238     1017     1185 1
    1239     3766     3934 1
    1240     1939     2311 1
    1241     3305     3521 1
    1242      101      365 1
    1243       65      413 1
    1244     1508     1772 1
    1245     2843     3107 1
    1246     2007     2103 1
    1247     1941     2241 1
    1248     3865     4141 1
    1249     3306     3522 1
    1250     1457     1805 1
    1251     1014     1122 1
    1252     3808     4108 1
    1253     2917     3113 1
    1254     3755     3971 1
    1255     1539     1847 1
    1256     1433     1649 1
    1257     3413     3617 1
    1258      113      382 1
    1259     3395     3579 1
    1260      627     1021 1
    1261       24      216 1
    1262     1984     2200 1
    1263     2460     2676 1
    1264      966     1386 1
    1265      105      369 1
    1266     1499     1571 1
    1267     2468     2744 1
    1268     1453     1801 1
    1269     3303     3567 1
    1270     3409     3613 1
    1271     2886     3054 1
    1272     2904     3276 1
    1273     3365     3737 1
    1274     1502     1718 1
    1275     2950     3046 1
    1276     1952     2120 1
    1277     3357     3429 1
    1278     1968     2340 1
    1279     2454     2724 1
    1280     2466     2742 1
    1281      545      653 1
    1282     1056     1152 1
    1283     3874     4171 1
    1284     1427     1571 1
    1285     1476     1776 1
    1286     3372     3444 1
    1287        4      614 1
    1288      475      619 1
    1289     2472     2748 1
    1290     3879     4187 1
    1291     1975     2071 1
    1292     2944     3252 1
    1293     3298     3490 1
    1294     3329     3545 1
    1295       39      255 1
    1296      481      673 1
    1297     2925     3021 1
    1298     1477     1645 1
    1299     3751     3919 1
    1300     1002     1218 1
    1301     2434     2626 1
    1302      470      662 1
    1303     3401     3677 1
    1304     3837     4029 1
    1305     3878     4186 1
    1306       44      308 1
    1307     3778     3994 1
    1308      597      873 1
    1309     3294     3438 1
    1310     2426     2594 1
    1311     1073     1369 1
    1312      479      671 1
    1313     3358     3550 1
    1314     2883     3421 1
    1315     3414     3710 1
    1316     1441     1705 1
    1317      605      901 1
    1318     1436     1700 1
    1319     2834     3098 1
    1320     1905     2121 1
    1321     3756     3972 1
    1322     3354     3462 1
    1323     1903     2167 1
    1324     2936     3232 1
    1325     1432     1648 1
    1326     3294     3462 1
    1327     2861     3233 1
    1328       57      429 1
    1329     1449     1665 1
    1330     3420     3624 1
    1331     3300     3516 1
    1332      981     1293 1
    1333     3755     3923 1
    1334     3852     4116 1
    1335     1983     2179 1
    1336     1498     1666 1
    1337      551      659 1
    1338     1531     1627 1
    1339     3815     4163 1
    1340     1587     1885 1
    1341     1876     2558 1
    1342     3830     3998 1
    1343     2851     3163 1
    1344     3298     3514 1
    1345     2420     2612 1
    1346     3362     3530 1
    1347     2394     2742 1
    1348     2849     3113 1
    1349     2475     2783 1
    1350      590      818 1
    1351       37      325 1
    1352     2828     2972 1
    1353     1421     1565 1
    1354      525      873 1
    1355      611      707 1
    1356     1072     1168 1
    1357      580      776 1
    1358     3376     3572 1
    1359     2811     3028 1
    1360      476      668 1
    1361      746     1021 1
    1362     2885     3077 1
    1363     3290     3482 1
    1364     1500     1872 1
    1365     1926     2255 1
    1366     1934     2306 1
    1367     2404     2704 1
    1368       53      425 1
    1369     2843     3059 1
    1370      106      202 1
    1371      120      396 1
    1372     3402     3630 1
    1373     1069     1273 1
    1374     3388     3484 1
    1375     3823     4015 1
    1376     1947     2485 1
    1377     1444     3134 1
    1378     2440     2536 1
    1379     2889     2961 1
    1380     2845     3133 1
    1381     1008     1308 1
    1382     1894     2086 1
    1383     2451     2647 1
    1384     3355     3547 1
    1385     1949     2057 1
    1386     1976     2072 1
    1387     3406     3703 1
    1388     1248     2454 1
    1389     3853     4069 1
    1390     1035     1299 1
    1391     1423     1615 1
    1392     2408     2708 1
    1393     2372     2588 1
    1394     2911     3127 1
    1395     3795     4167 1
    1396     1534     1810 1
    1397     3878     4154 1
    1398      517      865 1
    1399     3370     3742 1
    1400      143      347 1
    1401      594      890 1
    1402     2863     3079 1
    1403     1540     1816 1
    1404     2015     2291 1
    1405     3844     4108 1
    1406      606      902 1
    1407      566      830 1
    1408     2433     2601 1
    1409       45      333 1
    1410     3870     3966 1
    1411      171        1 1
    1412     1451     1667 1
    1413     1514     1730 1
    1414     1929     2145 1
    1415     1913     2177 1
    1416     2384     2600 1
    1417     1941     2289 1
    1418      100      364 1
    1419       42      258 1
    1420     3800     4016 1
    1421     1969     2165 1
    1422     3397     3673 1
    1423     1039     1303 1
    1424     3826     3994 1
    1425      974     1286 1
    1426     2928     3204 1
    1427     3827     3935 1
    1428     1486     1654 1
    1429     3392     3608 1
    1430       94      262 1
    1431     1994     2302 1
    1432     1960     3433 1
    1433     3405     3701 1
    1434      612      816 1
    1435     1993     2221 1
    1436     2862     3210 1
    1437     3850     3946 1
    1438     2822     3037 1
    1439     2401     2701 1
    1440     3419     3623 1
    1441     3773     4193 1
    1442      122      350 1
    1443     1434     1650 1
    1444     3841     4057 1
    1445     3758     3901 1
    1446       63     1813 1
    1447      531      903 1
    1448     2463     2771 1
    1449     2468     2696 1
    1450     1520     1715 1
    1451     1531     1807 1
    1452     3745     3937 1
    1453       10      202 1
    1454     2475     2751 1
    1455     3784     4096 1
    1456       79      247 1
    1457      998     1214 1
    1458     2382     2670 1
    1459     3771     4035 1
    1460     1976     2240 1
    1461     3862     4046 1
    1462      612      908 1
    1463     2830     2998 1
    1464     1503     1699 1
    1465     1997     2225 1
    1466      651      949 1
    1467     2930     3206 1
    1468      597      693 1
    1469     1946     2114 1
    1470     3287     3431 1
    1471     1501     1717 1
    1472     2361     2577 1
    1473     3302     3589 1
    1474     2385     2697 1
    1475     1413     1581 1
    1476     1898     2318 1
    1477     1547     1643 1
    1478     3862     3958 1
    1479       31      319 1
    1480     1479     1647 1
    1481     1072     1380 1
    1482     2436     2628 1
    1483     1059     1155 1
    1484     3293     3509 1
    1485       10      226 1
    1486     1527     1803 1
    1487     2014     2218 1
    1488     2470     2566 1
    1489     2456     2728 1
    1490     3747     3939 1
    1491      604      880 1
    1492     2824     2966 1
    1493     1495     1687 1
    1494     1453     1825 1
    1495     1532     1760 1
    1496      128      424 1
    1497     1887     2079 1
    1498     3776     4040 1
    1499     2409     2709 1
    1500     2912     3128 1
    1501     2934     3210 1
    1502      593      689 1
    1503     1469     1841 1
    1504     1903     2191 1
    1505     3836     4208 1
    1506     1448     1736 1
    1507     3864     4048 1
    1508     1902     2322 1
    1509     2347     2515 1
    1510      121      349 1
    1511     1488     1560 1
    1512     2927     3023 1
    1513     2870     3242 1
    1514     3343     3691 1
    1515     1045     1310 1
    1516     1055     1151 1
    1517     2376     2796 1
    1518     1447     1735 1
    1519     1017     1089 1
    1520     3813     4185 1
    1521     1425     1641 1
    1522     3790     4006 1
    1523     3836     4004 1
    1524     1054     1238 1
    1525       22      214 1
    1526     1536     1764 1
    1527     1912     2128 1
    1528     1933     2282 1
    1529     3288     3480 1
    1530     2946     3242 1
    1531     3835     4207 1
    1532     3828     4020 1
    1533      475      643 1
    1534      983     1271 1
    1535     2907     3171 1
    1536     1900     2188 1
    1537       30      450 1
    1538     1473     1845 1
    1539     3840     4212 1
    1540       36      252 1
    1541      549      717 1
    1542     1456     1783 1
    1543     2865     3197 1
    1544     3829     4201 1
    1545     2358     2574 1
    1546      130      358 1
    1547     3842     3938 1
    1548     1529     1625 1
    1549     3369     3441 1
    1550      952     1118 1
    1551     2853     3165 1
    1552       82      274 1
    1553     2834     3121 1
    1554     3840     4008 1
    1555     2352     2520 1
    1556      166       22 1
    1557       31      247 1
    1558       11      203 1
    1559      986     1358 1
    1560     1875     2092 1
    1561     1472     1772 1
    1562     1496     1568 1
    1563     1437     1653 1
    1564     1915     2131 1
    1565     3343     3559 1
    1566     1050     1320 1
    1567      156       84 1
    1568     1467     1767 1
    1569     3764     3932 1
    1570     1515     1611 1
    1571     2452     2548 1
    1572     3335     3683 1
    1573     3398     3494 1
    1574     3853     3949 1
    1575       38      350 1
    1576     3870     4166 1
    1577      141      417 1
    1578     2948     3224 1
    1579      596      692 1
    1580      544     1082 1
    1581     2366     2653 1
    1582     2890     3082 1
    1583     1985     2254 1
    1584     1955     2123 1
    1585     2892     3060 1
    1586     3413     3509 1
    1587     2482     2686 1
    1588      943     1159 1
    1589     2465     2693 1
    1590     3328     3675 1
    1591      986     1202 1
    1592     2013     2217 1
    1593      590      898 1
    1594     1974     2070 1
    1595     2380     2644 1
    1596      104      200 1
    1597     2389     2713 1
    1598     1533     1761 1
    1599      976     1288 1
    1600     1048     1244 1
    1601     1950     2058 1
    1602      120      216 1
    1603     2825     3017 1
    1604      595      823 1
    1605     2832     3024 1
    1606       83      275 1
    1607       78      186 1
    1608       77      245 1
    1609      109      374 1
    1610     2821     3013 1
    1611     3882     4086 1
    1612     1924     2296 1
    1613     2384     2648 1
    1614     2845     3109 1
    1615     3419     3695 1
    1616     2481     2757 1
    1617     1464     1836 1
    1618     1986     2082 1
    1619       99      315 1
    1620     1414     1606 1
    1621     3816     4032 1
    1622     1042     1306 1
    1623      597      825 1
    1624     1943     2291 1
    1625     3290     3457 1
    1626     1512     1776 1
    1627      159      481 1
    1628     1439     1859 1
    1629       71      443 1
    1630     1041     1305 1
    1631     2887     2995 1
    1632     1547     1842 1
    1633     1946     2054 1
    1634     2000     2276 1
    1635     1999     2095 1
    1636     1459     1789 1
    1637     1983     2250 1
    1638     1996     2304 1
    1639      599      827 1
    1640     2897     2969 1
    1641      495      782 1
    1642     2875     3091 1
    1643     3765     3981 1
    1644     1881     2025 1
    1645     1804     2858 1
    1646     3317     3605 1
    1647     1039     2637 1
    1648     3766     3910 1
    1649     3782     4094 1
    1650     1450     1666 1
    1651       28      316 1
    1652     3390     3660 1
    1653     1875     2067 1
    1654     2815     3007 1
    1655     1495     1567 1
    1656     1406     1598 1
    1657     2395     2767 1
    1658     3283     3427 1
    1659     1019     1187 1
    1660      125      401 1
    1661     1940     2156 1
    1662      974     1263 1
    1663     1035     1231 1
    1664     1948     2116 1
    1665     1026     1398 1
    1666     1964     2336 1
    1667     1420     1586 1
    1668     2952     3228 1
    1669     1018     1126 1
    1670     1545     1641 1
    1671      572      768 1
    1672      516      828 1
    1673      977     1289 1
    1674       54      402 1
    1675       44      260 1
    1676      471      688 1
    1677      132     1830 1
    1678      547      655 1
    1679     3406     3682 1
    1680      546      714 1
    1681     3805     4154 1
    1682      561      633 1
    1683     2002     2230 1
    1684     2870     3219 1
    1685     3407     3683 1
    1686     1026     1098 1
    1687     3399     3627 1
    1688     1881     2073 1
    1689     3828     3900 1
    1690     2888     2996 1
    1691     1458     1830 1
    1692     1072     1276 1
    1693     2364     2532 1
    1694     2916     3100 1
    1695     2418     2490 1
    1696     2909     3106 1
    1697      602      878 1
    1698     2443     4041 1
    1699      489      633 1
    1700     3883     4179 1
    1701     2847     3136 1
    1702      107      203 1
    1703     3410     3686 1
    1704       45      309 1
    1705     1068     2766 1
    1706     3816     4116 1
    1707     3304     3568 1
    1708     1993     2089 1
    1709     3819     3927 1
    1710      518      734 1
    1711     3349     3542 1
    1712     3314     3578 1
    1713     1016     1184 1
    1714     2392     2739 1
    1715     3767     3935 1
    1716     1003     1219 1
    1717     3298     3466 1
    1718     1073     1169 1
    1719      133      337 1
    1720     3347     3719 1
    1721     1061     1357 1
    1722     2399     2733 1
    1723     3324     3588 1
    1724     1984     2252 1
    1725       66      414 1
    1726     2001     2277 1
    1727      993     1325 1
    1728      516      732 1
    1729     1015     1123 1
    1730       87      277 1
    1731      102      366 1
    1732     2950     3154 1
    1733     2837     3257 1
    1734      970     1234 1
    1735     3040     3291 1
    1736      140      436 1
    1737     3312     3732 1
    1738     1904     2120 1
    1739     1460     1791 1
    1740     2906     3102 1
    1741     3365     3533 1
    1742     3798     4146 1
    1743     3814     4186 1
    1744     1020     1092 1
    1745       24      192 1
    1746     3792     4080 1
    1747     2852     3164 1
    1748     2410     2626 1
    1749     3333     3681 1
    1750     2829     2973 1
    1751      998     1298 1
    1752      555      927 1
    1753     1482     1674 1
    1754     1475     1847 1
    1755     1966     2158 1
    1756       70      418 1
    1757      981     1269 1
    1758     1025     1397 1
    1759     2916     3132 1
    1760     2919     3186 1
    1761     3406     3634 1
    1762     2831     2999 1
    1763      603      807 1
    1764     2012     2108 1
    1765     2352     2544 1
    1766     1436     1856 1
    1767      591      819 1
    1768     1474     1690 1
    1769     1417     1609 1
    1770      953     1145 1
    1771     1876     2068 1
    1772      944     1088 1
    1773     1890     2106 1
    1774      586      682 1
    1775      989     1361 1
    1776     2888     2960 1
    1777       96      264 1
    1778     2392     2764 1
    1779      137      233 1
    1780      476      692 1
    1781     3843     4059 1
    1782     3857     4073 1
    1783       44      356 1
    1784     2377     2665 1
    1785     3775     4063 1
    1786     2448     2664 1
    1787      957     1101 1
    1788     1030     1198 1
    1789     2376     2664 1
    1790     2484     2780 1
    1791     3318     3606 1
    1792     3287     3479 1
    1793     1508     1604 1
    1794     1501     1765 1
    1795     2356     2548 1
    1796     3813     4029 1
    1797     2902     2974 1
    1798     3304     3724 1
    1799     3394     3610 1
    1800     3751     3967 1
    1801      605      881 1
    1802     3459     3757 1
    1803      500      788 1
    1804     1046     1312 1
    1805      566      762 1
    1806     2358     2550 1
    1807      231      481 1
    1808     2940     3168 1
    1809       48      360 1
    1810      547      715 1
    1811     2373     2661 1
    1812     1918     2182 1
    1813       34      298 1
    1814     2931     3207 1
    1815      997     1369 1
    1816     2435     2507 1
    1817     3833     3905 1
    1818      486      654 1
    1819     3401     3697 1
    1820     1443     1732 1
    1821     3854     3950 1
    1822     1537     1741 1
    1823     2372     2660 1
    1824      944     1112 1
    1825     2944     3040 1
    1826     3879     3975 1
    1827      537      837 1
    1828     1879     2023 1
    1829     1452     1740 1
    1830     1526     1834 1
    1831       26      313 1
    1832      524      740 1
    1833     3887     4182 1
    1834      992     1323 1
    1835     2817     2961 1
    1836     3393     3609 1
    1837     3756     3924 1
    1838      942     1134 1
    1839      963     1227 1
    1840     1467     3217 1
    1841      553      925 1
    1842      529      901 1
    1843      494      710 1
    1844     1972     2236 1
    1845     1967     2039 1
    1846     3341     3713 1
    1847     1427     1595 1
    1848       37      349 1
    1849      997     1213 1
    1850     3398     3706 1
    1851     1975     2239 1
    1852     3853     4118 1
    1853     2930     3238 1
    1854      588      804 1
    1855      611      906 1
    1856     3384     3600 1
    1857      113      309 1
    1858     3384     3648 1
    1859       28      292 1
    1860     1956     2064 1
    1861     1897     2317 1
    1862      997     1346 1
    1863     1071     1379 1
    1864       86      458 1
    1865     1064     1340 1
    1866     1502     1698 1
    1867     2466     2562 1
    1868     2382     2694 1
    1869     1890     2058 1
    1870     3351     3519 1
    1871     1405     1551 1
    1872     2367     2631 1
    1873     3299     3491 1
    1874     2469     2565 1
    1875     3817     3925 1
    1876     3804     4152 1
    1877      544      712 1
    1878      953     1097 1
    1879      501      717 1
    1880      533      749 1
    1881     1496     1688 1
    1882     1899     2319 1
    1883     3820     3928 1
    1884      968     1256 1
    1885      956     1100 1
    1886     3360     3468 1
    1887     1520     1616 1
    1888     3887     3983 1
    1889     3418     3713 1
    1890     2417     2489 1
    1891      109      205 1
    1892     1001     1349 1
    1893     1509     1605 1
    1894     2407     2755 1
    1895     3415     3511 1
    1896     3844     3940 1
    1897     2874     3246 1
    1898     1930     2146 1
    1899     2898     3066 1
    1900     3815     4115 1
    1901     2871     3243 1
    1902     2398     2614 1
    1903     2370     2790 1
    1904     1033     1297 1
    1905       94      466 1
    1906     3295     3463 1
    1907     1991     2087 1
    1908     3812     4184 1
    1909     3350     3544 1
    1910      126      222 1
    1911      160      554 1
    1912     2880     3180 1
    1913     3776     4064 1
    1914     1456     1803 1
    1915     2016     2220 1
    1916     3883     3979 1
    1917      135      339 1
    1918     1928     2300 1
    1919     3751     3895 1
    1920     1008     1224 1
    1921     3385     3581 1
    1922     2031     2425 1
    1923     1978     2242 1
    1924     3817     4010 1
    1925     2945     3041 1
    1926     1006     1378 1
    1927     3777     4065 1
    1928       67      439 1
    1929     2416     2584 1
    1930     2478     2774 1
    1931     3756     3900 1
    1932     3791     4007 1
    1933       87      255 1
    1934     1519     1735 1
    1935     1917     2133 1
    1936     1424     1592 1
    1937     2902     3070 1
    1938     1053     1237 1
    1939       63      279 1
    1940     3830     4202 1
    1941      959     1175 1
    1942     1895     2111 1
    1943     3342     3714 1
    1944     3768     3912 1
    1945       65      437 1
    1946     1962     2154 1
    1947     3360     3552 1
    1948       47      335 1
    1949      993     1341 1
    1950     1501     1597 1
    1951     1548     1844 1
    1952     1487     1595 1
    1953      951     1143 1
    1954     3291     3483 1
    1955     1522     1618 1
    1956     1052     1324 1
    1957     1477     1585 1
    1958      586      802 1
    1959     3335     3551 1
    1960     3382     3598 1
    1961      983     1295 1
    1962     1900     2164 1
    1963     3353     3461 1
    1964     2420     2588 1
    1965     2463     2739 1
    1966     3774     4062 1
    1967     1411     1555 1
    1968     1548     1824 1
    1969     3415     3711 1
    1970      165       21 1
    1971     3383     3647 1
    1972     1434     1854 1
    1973     1955     2027 1
    1974     1908     2328 1
    1975      587      771 1
    1976      959     1151 1
    1977     2351     2567 1
    1978       93      465 1
    1979     1520     1792 1
    1980      147       74 1
    1981     3412     3720 1
    1982      497      713 1
    1983     1546     1822 1
    1984     1966     2134 1
    1985     3335     3707 1
    1986     1046     1242 1
    1987     3874     4150 1
    1988     1978     2162 1
    1989     3321     3537 1
    1990       75      733 1
    1991      156       12 1
    1992     2445     2661 1
    1993      490      706 1
    1994     1047     1263 1
    1995     1468     1684 1
    1996       82      190 1
    1997      591      867 1
    1998     1544     1820 1
    1999     1968     2136 1
    2000      116      212 1
    2001     1457     1673 1
    2002     2779     3885 1
    2003     2811     3003 1
    2004      976     1240 1
    2005     2883     3541 1
    2006      600      828 1
    2007     1999     2227 1
    2008     2482     2758 1
    2009      587      683 1
    2010     1934     2234 1
    2011     1883     2051 1
    2012        4      196 1
    2013     2913     3177 1
    2014     2383     2599 1
    2015      500      920 1
    2016      969     1389 1
    2017       80      272 1
    2018       27      291 1
    2019     1908     2124 1
    2020       76      244 1
    2021     2936     3032 1
    2022     2933     3209 1
    2023     2825     3041 1
    2024      999     1371 1
    2025      609      813 1
    2026     2451     2718 1
    2027     2480     2756 1
    2028     3884     3980 1
    2029     1888     2030 1
    2030     2915     3179 1
    2031      545      737 1
    2032      162       18 1
    2033     1497     1869 1
    2034     2011     2107 1
    2035     1028     1100 1
    2036      118      334 1
    2037      478      622 1
    2038     1488     1680 1
    2039     1907     2195 1
    2040     1530     1758 1
    2041     3308     3572 1
    2042     2932     3028 1
    2043     3374     3570 1
    2044     3787     4099 1
    2045       24      168 1
    2046       43      331 1
    2047     3304     3520 1
    2048     2888     3056 1
    2049     1960     2332 1
    2050     1528     1804 1
    2051     1451     1763 1
    2052     1064     1292 1
    2053     3280     3914 1
    2054     1506     1602 1
    2055     3405     3633 1
    2056     1966     2338 1
    2057      119      335 1
    2058      125      353 1
    2059     1016     1124 1
    2060     2905     3001 1
    2061     2890     3058 1
    2062     3309     3597 1
    2063     3763     3907 1
    2064     3411     3719 1
    2065     1719     2833 1
    2066     2913     3129 1
    2067     2824     3016 1
    2068      999     1299 1
    2069      542      710 1
    2070     1515     1782 1
    2071     2910     3126 1
    2072     1921     2245 1
    2073     3403     3631 1
    2074      941     1085 1
    2075     2860     3076 1
    2076     1883     2099 1
    2077     1951     2119 1
    2078     1524     1800 1
    2079     2484     2580 1
    2080     2408     2624 1
    2081     1423     1567 1
    2082      112      308 1
    2083     1535     1811 1
    2084     2933     3161 1
    2085     3401     3629 1
    2086      485      629 1
    2087     1493     1685 1
    2088     2820     3012 1
    2089     2476     2752 1
    2090      124      220 1
    2091       46      262 1
    2092     2937     3033 1
    2093     2842     3106 1
    2094     3752     3968 1
    2095     1043     1227 1
    2096      501      789 1
    2097     3418     3514 1
    2098     1040     1236 1
    2099     1506     1770 1
    2100     1925     2297 1
    2101     3754     3898 1
    2102     3386     3652 1
    2103      134      442 1
    2104     3754     3946 1
    2105     2873     3245 1
    2106     2390     2606 1
    2107     3320     3608 1
    2108       69      285 1
    2109     3791     4055 1
    2110     3867     4095 1
    2111     2816     3008 1
    2112      106      370 1
    2113     3347     3695 1
    2114     1987     2258 1
    2115      542      615 1
    2116     3834     3906 1
    2117       93      285 1
    2118     3767     3911 1
    2119     1016     1208 1
    2120       67      415 1
    2121      143      438 1
    2122      971     1187 1
    2123       68      440 1
    2124     3324     3612 1
    2125     1431     1851 1
    2126     2827     2995 1
    2127      473      617 1
    2128     1524     1708 1
    2129     1029     1401 1
    2130      975     1239 1
    2131     2875     3175 1
    2132     1432     1852 1
    2133     2402     2702 1
    2134     2379     2643 1
    2135     2886     2958 1
    2136     3396     3492 1
    2137     3348     3696 1
    2138     2379     2691 1
    2139     1465     1765 1
    2140      508     2198 1
    2141     1959     2149 1
    2142     3843     4039 1
    2143     3312     3600 1
    2144      985     1357 1
    2145     2877     3177 1
    2146     3868     4176 1
    2147     1063     1291 1
    2148      139      435 1
    2149     1020     1212 1
    2150      567      663 1
    2151     2891     2999 1
    2152     3785     4049 1
    2153     1996     2272 1
    2154     1032     1404 1
    2155     3388     3604 1
    2156     1975     2191 1
    2157     2380     2596 1
    2158     2449     2665 1
    2159     3784     4000 1
    2160     1951     2059 1
    2161     3366     3438 1
    2162       57      273 1
    2163     3765     3957 1
    2164      979     1243 1
    2165     1038     1235 1
    2166     3849     3945 1
    2167     2480     2684 1
    2168     2869     3169 1
    2169      949     1141 1
    2170     1980     2076 1
    2171      557      929 1
    2172      507      796 1
    2173       61      361 1
    2174      568      832 1
    2175     3306     3594 1
    2176     2901     3273 1
    2177      977     1241 1
    2178      989     1337 1
    2179     1057     1333 1
    2180     2809     2979 1
    2181     1940     2240 1
    2182     3286     3478 1
    2183      488      632 1
    2184      542      736 1
    2185     2436     2808 1
    2186     3278     3913 1
    2187     3330     3546 1
    2188     1979     2195 1
    2189     2377     2593 1
    2190      950     1117 1
    2191     1971     2167 1
    2192      570      834 1
    2193      480      672 1
    2194     3884     4088 1
    2195     2853     3069 1
    2196       53      269 1
    2197       97      313 1
    2198      990     1319 1
    2199     2410     2710 1
    2200     3318     3534 1
    2201     2856     3072 1
    2202     1495     1867 1
    2203      994     1327 1
    2204     3332     3548 1
    2205      478      670 1
    2206     2342     2534 1
    2207       27      314 1
    2208     3752     3920 1
    2209     2359     2527 1
    2210      990     1206 1
    2211     2396     2612 1
    2212     2858     3074 1
    2213     1944     2244 1
    2214     1431     1647 1
    2215     3845     4061 1
    2216      550      658 1
    2217       25      241 1
    2218     3799     4171 1
    2219       40     1730 1
    2220     2878     3250 1
    2221       88     1561 1
    2222      492      660 1
    2223      573      669 1
    2224     2421     2529 1
    2225     3825     3933 1
    2226     2361     2505 1
    2227      581      797 1
    2228     3377     3593 1
    2229     1942     2242 1
    2230     3368     3740 1
    2231       32      296 1
    2232     3325     3697 1
    2233      596      892 1
    2234      599      695 1
    2235      505      721 1
    2236      155       83 1
    2237     2462     2558 1
    2238     3797     4145 1
    2239     1483     1555 1
    2240     1909     2197 1
    2241     3379     3595 1
    2242     3842     4038 1
    2243     3821     3989 1
    2244     3341     3689 1
    2245      578      844 1
    2246      482      625 1
    2247     2844     3060 1
    2248     3385     3601 1
    2249     3308     3596 1
    2250     3300     3492 1
    2251      988     1335 1
    2252      102      299 1
    2253       92      260 1
    2254     1960     2128 1
    2255     1920     2232 1
    2256     3397     3493 1
    2257     2428     2619 1
    2258     2357     2501 1
    2259     1070     1274 1
    2260     1874     2485 1
    2261     3848     3944 1
    2262     2482     2578 1
    2263     2813     2981 1
    2264      595      691 1
    2265     1977     2073 1
    2266     3327     3674 1
    2267     3313     3577 1
    2268     1486     1558 1
    2269     1051     1246 1
    2270     3508     3759 1
    2271     2814     2982 1
    2272     2922     3138 1
    2273     1890     2034 1
    2274     3299     3467 1
    2275     3345     3693 1
    2276      939     1156 1
    2277      154       82 1
    2278     3790     4054 1
    2279     2831     3047 1
    2280     3296     3488 1
    2281     2876     3224 1
    2282      116      388 1
    2283     2945     3241 1
    2284     3834     4002 1
    2285     1956     2148 1
    2286     1893     2085 1
    2287     3354     3546 1
    2288     2475     2571 1
    2289      592      868 1
    2290     3884     4160 1
    2291      493      913 1
    2292     2840     3260 1
    2293     3279     3496 1
    2294     3361     3733 1
    2295     3319     3535 1
    2296     2366     2582 1
    2297     1452     1668 1
    2298     2857     3073 1
    2299     2006     2282 1
    2300       20      236 1
    2301      591      687 1
    2302     3877     4185 1
    2303      537      885 1
    2304     1492     2965 1
    2305     1915     2203 1
    2306      140      416 1
    2307     3086     3361 1
    2308     2016     2112 1
    2309      548      716 1
    2310     3786     4074 1
    2311     2884     3422 1
    2312     1430     1646 1
    2313     3292     3484 1
    2314     3844     4060 1
    2315     1954     2026 1
    2316     3331     3547 1
    2317       84      252 1
    2318       59      431 1
    2319      964     1180 1
    2320     3838     4006 1
    2321     1447     1663 1
    2322     1518     1734 1
    2323     2378     2594 1
    2324      144      440 1
    2325     2341     2487 1
    2326     1904     2168 1
    2327      585      801 1
    2328     3381     3597 1
    2329     3877     4081 1
    2330     2009     2285 1
    2331      572      668 1
    2332     2422     2614 1
    2333     2430     2502 1
    2334     3762     3954 1
    2335     3343     3715 1
    2336       47      263 1
    2337     3766     3982 1
    2338     1010     1083 1
    2339     1408     2090 1
    2340     3768     3936 1
    2341      510      774 1
    2342      598      694 1
    2343     2456     2552 1
    2344     2461     2737 1
    2345     2412     2628 1
    2346     2444     2708 1
    2347     1959     2127 1
    2348     3861     4045 1
    2349     3855     4071 1
    2350      558      930 1
    2351     2432     2504 1
    2352     3764     3956 1
    2353      509      797 1
    2354     3420     3716 1
    2355       41      305 1
    2356      512      776 1
    2357      988     1360 1
    2358      557      629 1
    2359     1047     1243 1
    2360      960     1128 1
    2361     1961     2129 1
    2362     1472     1688 1
    2363      183       75 1
    2364     3296     3440 1
    2365     2459     2643 1
    2366     2415     2523 1
    2367     3758     3950 1
    2368     1990     2264 1
    2369     1878     2094 1
    2370     3339     3555 1
    2371      140      344 1
    2372     1978     2074 1
    2373       56      272 1
    2374      972     1260 1
    2375     3832     4000 1
    2376     3354     3426 1
    2377     1045     1241 1
    2378     3822     4014 1
    2379     1955     2147 1
    2380     1892     2084 1
    2381     3353     3545 1
    2382     2822     2965 1
    2383     1923     2249 1
    2384     1987     2203 1
    2385      469      687 1
    2386     1466     1838 1
    2387     2859     3185 1
    2388       35      323 1
    2389     1547     1823 1
    2390     1049     1245 1
    2391     2880     3228 1
    2392     3888     3984 1
    2393     3400     3708 1
    2394     1071     1275 1
    2395     2415     2583 1
    2396     2345     2537 1
    2397     2471     2768 1
    2398     1998     2274 1
    2399     2939     3215 1
    2400     1438     1858 1
    2401     3774     3990 1
    2402      962     1226 1
    2403      590      686 1
    2404     1493     1865 1
    2405     3420     3696 1
    2406       81      273 1
    2407      116      332 1
    2408     1044     1140 1
    2409     1038     1254 1
    2410     3762     3978 1
    2411     1499     1871 1
    2412     1033     1129 1
    2413     1462     1810 1
    2414     3407     3503 1
    2415     1416     1608 1
    2416      546      738 1
    2417     1878     2022 1
    2418     3285     3477 1
    2419       30      246 1
    2420     3764     3980 1
    2421     3404     3680 1
    2422      628     1022 1
    2423     1951     2023 1
    2424     2364     2508 1
    2425     1919     2231 1
    2426     1529     1805 1
    2427      536      836 1
    2428      163       91 1
    2429     1962     2334 1
    2430     3819     3987 1
    2431     2391     2717 1
    2432     1457     1785 1
    2433      495      759 1
    2434     1488     1656 1
    2435      554      722 1
    2436     1889     2057 1
    2437     3350     3518 1
    2438      142      437 1
    2439     3281     3473 1
    2440     3358     3430 1
    2441     1968     2040 1
    2442     3282     3426 1
    2443     1408     1600 1
    2444      123      351 1
    2445     2891     3059 1
    2446     3295     3439 1
    2447     3865     4093 1
    2448      965     1253 1
    2449     1947     2115 1
    2450     2903     3095 1
    2451     1412     1556 1
    2452     3807     4107 1
    2453     3286     3502 1
    2454     3394     3668 1
    2455     1990     2174 1
    2456     2812     3494 1
    2457     1539     1815 1
    2458      601      877 1
    2459     3787     4075 1
    2460      182       16 1
    2461     2354     2569 1
    2462      129      225 1
    2463     1534     1762 1
    2464     2843     3263 1
    2465     1885     2077 1
    2466     2901     3093 1
    2467     2948     3244 1
    2468     3875     4151 1
    2469     2838     3102 1
    2470     3810     4182 1
    2471      941     1109 1
    2472     3357     3465 1
    2473     1036     1232 1
    2474     1502     1766 1
    2475      603      879 1
    2476     2866     3238 1
    2477     3877     4153 1
    2478      477      645 1
    2479     3860     4076 1
    2480     3861     4134 1
    2481     1490     1862 1
    2482     1944     2160 1
    2483     3341     3557 1
    2484     1636     1887 1
    2485     3782     3998 1
    2486       56      387 1
    2487     3797     4125 1
    2488      981     1245 1
    2489      952     1166 1
    2490     1534     1831 1
    2491     3316     3628 1
    2492     3391     3586 1
    2493     2007     2315 1
    2494     2946     3222 1
    2495     3859     3955 1
    2496      148     1477 1
    2497     3874     3970 1
    2498      564      732 1
    2499     1018     1186 1
    2500     3292     3434 1
    2501     3765     3933 1
    2502     2474     2678 1
    2503     1901     2117 1
    2504     1075     1171 1
    2505     1917     2205 1
    2506      162       90 1
    2507      134      338 1
    2508     1013     1121 1
    2509     1487     1679 1
    2510      514      802 1
    2511     1899     2163 1
    2512      562      754 1
    2513     3865     3961 1
    2514      992     1364 1
    2515     2841     3129 1
    2516     1445     1661 1
    2517       69      417 1
    2518       96      468 1
    2519      604      808 1
    2520      110      206 1
    2521     2950     3226 1
    2522     3359     3431 1
    2523     3396     3580 1
    2524     2838     3258 1
    2525      534      906 1
    2526     1953     2025 1
    2527     3867     4175 1
    2528     2457     2673 1
    2529      589      865 1
    2530     2908     3104 1
    2531     1875     2020 1
    2532     1964     2036 1
    2533       67      283 1
    2534     3869     4145 1
    2535     3387     3603 1
    2536      524      872 1
    2537     1071     1167 1
    2538     3385     3481 1
    2539     1895     2063 1
    2540     3356     3524 1
    2541     1061     1289 1
    2542      945     1113 1
    2543     3792     4104 1
    2544     3775     4195 1
    2545     2857     3181 1
    2546      996     1368 1
    2547      491      659 1
    2548      983     1199 1
    2549     1935     2151 1
    2550     3389     3605 1
    2551     1981     2177 1
    2552     3366     3738 1
    2553     3868     4096 1
    2554     3769     4189 1
    2555     1469     1685 1
    2556      955     1147 1
    2557     2272     3326 1
    2558     1411     1603 1
    2559     2446     2710 1
    2560     2473     2781 1
    2561      478      646 1
    2562     3305     3569 1
    2563     2441     2537 1
    2564     2397     2745 1
    2565     2422     2590 1
    2566     2439     2703 1
    2567     3820     3988 1
    2568     1060     1368 1
    2569     2849     3065 1
    2570     3311     3527 1
    2571     3277     3447 1
    2572     2910     3006 1
    2573     3371     3443 1
    2574     3386     3582 1
    2575     3870     4098 1
    2576     1004     1304 1
    2577      556      747 1
    2578      529      829 1
    2579     1935     2235 1
    2580     3881     4085 1
    2581      476      620 1
    2582     1044     1308 1
    2583     1413     1605 1
    2584     2362     2554 1
    2585      519      891 1
    2586     3414     3510 1
    2587     3877     3973 1
    2588      136      232 1
    2589      962     1178 1
    2590     1516     1732 1
    2591     1931     2147 1
    2592     2376     2592 1
    2593     3875     4103 1
    2594       23      167 1
    2595     3306     3726 1
    2596     1545     1749 1
    2597     3753     3945 1
    2598     1957     2329 1
    2599      989     1205 1
    2600     1912     2176 1
    2601      580      676 1
    2602     3818     3926 1
    2603     2819     3011 1
    2604     3402     3678 1
    2605     2016     2312 1
    2606     2853     3141 1
    2607     2400     2735 1
    2608      594      822 1
    2609     1938     2238 1
    2610     2917     3013 1
    2611     3366     3534 1
    2612     2927     3111 1
    2613     1899     2186 1
    2614     3864     3960 1
    2615     2935     3231 1
    2616     1930     2278 1
    2617     2461     2557 1
    2618      498      786 1
    2619     2836     3052 1
    2620     1938     2310 1
    2621     2464     2560 1
    2622     3336     3708 1
    2623     3799     4147 1
    2624      610      886 1
    2625     2432     2600 1
    2626       64      412 1
    2627     3346     3562 1
    2628      492      636 1
    2629      474      642 1
    2630      524      896 1
    2631     3852     3948 1
    2632     2935     3163 1
    2633     2852     3116 1
    2634     1877     2069 1
    2635     2404     2752 1
    2636     1893     2037 1
    2637      150        6 1
    2638      581      777 1
    2639     2409     2757 1
    2640     2400     2772 1
    2641     1063     1339 1
    2642      582      852 1
    2643       93      261 1
    2644     1926     2274 1
    2645     2386     2674 1
    2646     1922     2247 1
    2647     3786     4050 1
    2648     3300     3468 1
    2649     1033     1229 1
    2650     2816     3032 1
    2651      513      825 1
    2652     2447     2631 1
    2653     2909     3005 1
    2654     3367     3535 1
    2655     3862     4078 1
    2656       41      353 1
    2657       34      322 1
    2658     2813     2957 1
    2659     3850     4034 1
    2660     3373     3589 1
    2661     1954     2146 1
    2662     2470     2698 1
    2663     2814     2958 1
    2664     2371     2791 1
    2665      504      792 1
    2666      470     1153 1
    2667     2388     2700 1
    2668      961     1177 1
    2669     1525     1753 1
    2670     1422     1614 1
    2671     3316     3580 1
    2672     1041     1225 1
    2673      519      866 1
    2674     2423     2495 1
    2675     3821     3893 1
    2676      482      697 1
    2677     2414     2608 1
    2678      106      290 1
    2679     3347     3647 1
    2680     1485     1593 1
    2681     3327     3543 1
    2682      158       16 1
    2683     1886     2101 1
    2684      975     1287 1
    2685     2472     2700 1
    2686     3824     3896 1
    2687      111      207 1
    2688      532      904 1
    2689     3865     4173 1
    2690       58      430 1
    2691     2918     3134 1
    2692      576      672 1
    2693     3822     3930 1
    2694     2428     2596 1
    2695     3341     3641 1
    2696     3843     4107 1
    2697     2411     2711 1
    2698     1414     1630 1
    2699     3288     3456 1
    2700      138      342 1
    2701     1902     2166 1
    2702     3834     4206 1
    2703     1055     1271 1
    2704     2835     3051 1
    2705     1078     1174 1
    2706     2391     2738 1
    2707      111      378 1
    2708     1079     1355 1
    2709      540      912 1
    2710      609      705 1
    2711     2465     2761 1
    2712       85      253 1
    2713      948     1164 1
    2714     1485     1653 1
    2715      559      727 1
    2716     3860     4132 1
    2717     2370     2634 1
    2718       98      294 1
    2719     2455     2551 1
    2720     3750     3942 1
    2721      121      429 1
    2722     2860     3207 1
    2723     2357     2573 1
    2724      562      934 1
    2725      563      755 1
    2726     3343     3643 1
    2727     3866     4174 1
    2728       95      287 1
    2729      957     1173 1
    2730     3410     3718 1
    2731       54      426 1
    2732      956     1124 1
    2733      956     1172 1
    2734      525      897 1
    2735     2474     2782 1
    2736     2874     3090 1
    2737     2948     3152 1
    2738     3795     4121 1
    2739       32      452 1
    2740     2839     3055 1
    2741     2945     3149 1
    2742     2002     2299 1
    2743      984     1248 1
    2744     2920     3188 1
    2745     3772     4036 1
    2746     3871     4099 1
    2747      138      414 1
    2748     3750     3918 1
    2749     2863     3235 1
    2750      958     1150 1
    2751     1467     1839 1
    2752      500      716 1
    2753     2889     3081 1
    2754     3776     4196 1
    2755       36      456 1
    2756     2441     2657 1
    2757     2384     2696 1
    2758     2817     3033 1
    2759     2343     2488 1
    2760     3806     4155 1
    2761       42      306 1
    2762     1012     1120 1
    2763     2436     2508 1
    2764     3316     3532 1
    2765     2359     2551 1
    2766     1500     1668 1
    2767     1882     2050 1
    2768     2912     3008 1
    2769     2898     3270 1
    2770     1545     1821 1
    2771     2847     3111 1
    2772     1006     1306 1
    2773        6      222 1
    2774      551      743 1
    2775     1034     1298 1
    2776     2884     3543 1
    2777     3858     3954 1
    2778     2839     3127 1
    2779      505      793 1
    2780      504      720 1
    2781     2394     2610 1
    2782     3411     3507 1
    2783     1031     1223 1
    2784       64      436 1
    2785      549      741 1
    2786      992     1340 1
    2787     2924     3020 1
    2788     1907     2123 1
    2789     1875     2044 1
    2790       23      215 1
    2791     1944     2292 1
    2792       25      289 1
    2793     2345     2513 1
    2794     1037     1253 1
    2795     2150     2425 1
    2796     2880     3096 1
    2797     3334     3550 1
    2798     3845     4109 1
    2799     2815     2959 1
    2800     1024     2497 1
    2801      965     1229 1
    2802     3410     3614 1
    2803      608      704 1
    2804     1405     1623 1
    2805     1916     2228 1
    2806     3325     3649 1
    2807      494      914 1
    2808      143      239 1
    2809     3284     3476 1
    2810      166       94 1
    2811      523      871 1
    2812     1476     1824 1
    2813      511      727 1
    2814     1492     1660 1
    2815     2882     3050 1
    2816      999     1215 1
    2817     3858     4074 1
    2818      555      626 1
    2819      982     1270 1
    2820     1917     2229 1
    2821       29      449 1
    2822       74      268 1
    2823     3336     3671 1
    2824      550      718 1
    2825     2904     2976 1
    2826     3827     3899 1
    2827     3796     4143 1
    2828       24      240 1
    2829      585      769 1
    2830      175        7 1
    2831     3338     3638 1
    2832     1524     1620 1
    2833     2884     3052 1
    2834      950     1165 1
    2835     2855     3119 1
    2836     3313     3529 1
    2837     3368     3440 1
    2838     1055     1330 1
    2839     1504     1700 1
    2840      612      708 1
    2841     1873     2043 1
    2842     1466     1766 1
    2843     2842     3130 1
    2844     3280     3472 1
    2845     2432     2624 1
    2846     1498     1690 1
    2847     3797     4169 1
    2848     2902     3094 1
    2849     3806     4178 1
    2850     1054     1270 1
    2851     3287     3503 1
    2852     1504     1720 1
    2853     3347     3563 1
    2854     1945     2138 1
    2855     2911     3007 1
    2856      967     1387 1
    2857     2900     3092 1
    2858     1898     2114 1
    2859      616     1945 1
    2860     2810     3445 1
    2861      105      201 1
    2862      503      719 1
    2863      538      754 1
    2864     2929     3237 1
    2865     2470     2746 1
    2866      595      891 1
    2867     1873     2019 1
    2868     2423     2591 1
    2869      995     1329 1
    2870     3404     3500 1
    2871     2895     3267 1
    2872      570      786 1
    2873     1897     2113 1
    2874     1943     2159 1
    2875      983     1247 1
    2876      479      695 1
    2877     3358     3526 1
    2878      155       11 1
    2879     3416     3512 1
    2880     3318     3630 1
    2881     3334     3682 1
    2882     1902     2118 1
    2883     2832     2976 1
    2884      116      311 1
    2885       70      442 1
    2886      139      235 1
    2887      607      703 1
    2888     3872     3968 1
    2889     3839     4031 1
    2890     1472     1844 1
    2891     2907     3103 1
    2892     2861     3209 1
    2893      137      341 1
    2894      517      733 1
    2895      485      701 1
    2896     2943     3251 1
    2897      477      693 1
    2898       71      287 1
    2899      544     1203 1
    2900     2868     3240 1
    2901     2866     3199 1
    2902     3383     3567 1
    2903     3284     3452 1
    2904     2460     2644 1
    2905     1009     1202 1
    2906     2843     3131 1
    2907      974     1190 1
    2908     1983     2199 1
    2909     1995     2271 1
    2910     2810     3421 1
    2911     3392     3488 1
    2912     3399     3495 1
    2913     3815     4187 1
    2914       61      410 1
    2915     3292     3458 1
    2916     3765     3909 1
    2917     3418     3622 1
    2918     1994     2270 1
    2919     2882     2990 1
    2920     2923     3118 1
    2921     3404     3632 1
    2922     1437     1701 1
    2923      579      846 1
    2924     1946     2019 1
    2925       66      438 1
    2926      976     1192 1
    2927     1053     1269 1
    2928     1997     2273 1
    2929     1511     1695 1
    2930     3311     3575 1
    2931     2865     3213 1
    2932     3847     3943 1
    2933       53      401 1
    2934     3853     4049 1
    2935      139      343 1
    2936      546      654 1
    2937     2870     3170 1
    2938     2951     3227 1
    2939      474      666 1
    2940     1470     1686 1
    2941     2440     2656 1
    2942     1527     1623 1
    2943     3803     4151 1
    2944     1541     1837 1
    2945      165       93 1
    2946     1510     1726 1
    2947     1933     2149 1
    2948     1455     1671 1
    2949     3378     3642 1
    2950      783     1897 1
    2951     3400     3628 1
    2952     2427     2617 1
    2953       99      363 1
    2954      938     1130 1
    2955     1028     1196 1
    2956      526      859 1
    2957      907     2013 1
    2958     2442     2658 1
    2959       59      275 1
    2960     3367     3559 1
    2961     3767     3959 1
    2962     2857     3205 1
    2963     2879     3179 1
    2964     3825     4017 1
    2965     1439     1727 1
    2966     1933     2233 1
    2967      984     1272 1
    2968     3393     3577 1
    2969      971     1259 1
    2970     1438     1726 1
    2971     1463     1835 1
    2972     2926     3022 1
    2973      538      886 1
    2974      584      680 1
    2975     1425     1617 1
    2976     3827     4019 1
    2977     1059     1335 1
    2978     2012     2288 1
    2979      527      899 1
    2980     1532     1808 1
    2981     3880     4156 1
    2982     1941     2313 1
    2983      963     1179 1
    2984      592      900 1
    2985      969     1257 1
    2986     3359     3527 1
    2987     1945     2053 1
    2988     2448     2712 1
    2989     1950     2022 1
    2990     2000     2096 1
    2991      994     1210 1
    2992       55      271 1
    2993      508      724 1
    2994     1463     1679 1
    2995     3371     3563 1
    2996     1469     1769 1
    2997       88      279 1
    2998     1442     1731 1
    2999     1486     1678 1
    3000     1999     2295 1
    3001      109      325 1
    3002     1911     2175 1
    3003     2951     3246 1
    3004     3310     3574 1
    3005     2862     3234 1
    3006     2434     2602 1
    3007      965     1181 1
    3008     3279     3471 1
    3009      525      741 1
    3010      970     1186 1
    3011     1970     2234 1
    3012     2472     4170 1
    3013     3403     3699 1
    3014     1530     1626 1
    3015     2423     2531 1
    3016     2463     2559 1
    3017     2853     3117 1
    3018     1898     2185 1
    3019     3363     3531 1
    3020     3856     3952 1
    3021     1005     1353 1
    3022     2005     2101 1
    3023     2411     2759 1
    3024     2881     2989 1
    3025      232      483 1
    3026      571      667 1
    3027      610      706 1
    3028      475      667 1
    3029      997     1297 1
    3030     2405     2753 1
    3031     2866     3214 1
    3032     3846     3942 1
    3033     2405     2705 1
    3034     3806     4022 1
    3035     1010     1178 1
    3036     2949     3225 1
    3037     3287     3455 1
    3038     1974     2190 1
    3039     2858     3230 1
    3040       88      460 1
    3041     1974     2238 1
    3042     1931     2279 1
    3043     2895     2966 1
    3044     3280     3962 1
    3045     1991     2266 1
    3046     1989     2173 1
    3047     2436     2604 1
    3048      987     1334 1
    3049     1945     2113 1
    3050     1995     2223 1
    3051     2467     2563 1
    3052     3802     4150 1
    3053       62      278 1
    3054     1946     2140 1
    3055     3786     4002 1
    3056       90      258 1
    3057     1429     1645 1
    3058     1973     2069 1
    3059     1893     2061 1
    3060     3354     3522 1
    3061      490      634 1
    3062     2465     2741 1
    3063      111      327 1
    3064     2032     2426 1
    3065     2406     2754 1
    3066     2948     3044 1
    3067      549      621 1
    3068     2428     2800 1
    3069     1978     2194 1
    3070     3788     4004 1
    3071     1029     1101 1
    3072     1543     1639 1
    3073      539      887 1
    3074     2854     3070 1
    3075     1949     2117 1
    3076     3869     3965 1
    3077     2479     2683 1
    3078     3370     3442 1
    3079     3813     4161 1
    3080     2439     2535 1
    3081     2893     3265 1
    3082       36      300 1
    3083     3836     4028 1
    3084     1450     1738 1
    3085     3785     4073 1
    3086      561      753 1
    3087      563      935 1
    3088      555      745 1
    3089      493      709 1
    3090      971     1235 1
    3091      128      356 1
    3092     2469     2765 1
    3093     3755     3899 1
    3094     3792     4008 1
    3095     2941     3249 1
    3096     3747     3916 1
    3097     1521     1705 1
    3098     3355     3463 1
    3099     3888     4184 1
    3100       91      259 1
    3101     1431     1718 1
    3102        3      195 1
    3103      950     1142 1
    3104     1899     2115 1
    3105      564      936 1
    3106     2407     2779 1
    3107     3390     3486 1
    3108      985     1309 1
    3109       82      250 1
    3110      947     1163 1
    3111     2392     2608 1
    3112     2469     2697 1
    3113     3288     3432 1
    3114       39      303 1
    3115      987     1313 1
    3116     1478     1586 1
    3117      559      931 1
    3118     2387     2651 1
    3119     2884     2992 1
    3120     1439     1703 1
    3121     1970     2066 1
    3122     3384     3480 1
    3123     1026     1218 1
    3124     1478     1672 1
    3125      134      410 1
    3126     1522     1796 1
    3127     1513     1709 1
    3128     3848     4044 1
    3129       34      454 1
    3130     3793     4165 1
    3131     1056     1240 1
    3132     3321     3585 1
    3133       76      614 1
    3134     3762     3930 1
    3135     1546     1642 1
    3136     2388     2652 1
    3137     3415     3691 1
    3138       60      395 1
    3139      555      723 1
    3140       43      307 1
    3141      133      409 1
    3142     2851     3115 1
    3143     2378     2667 1
    3144      160      483 1
    3145     2888     3080 1
    3146     3746     3938 1
    3147      115      310 1
    3148     1079     1283 1
    3149     1048     1316 1
    3150      315     1429 1
    3151     1007     1307 1
    3152     1893     2109 1
    3153      573      789 1
    3154     2894     3062 1
    3155      138      234 1
    3156     1046     1262 1
    3157     3285     3501 1
    3158     3779     3995 1
    3159      988     1204 1
    3160     3301     3721 1
    3161      601      909 1
    3162     2901     2973 1
    3163     1977     2193 1
    3164     2375     2591 1
    3165     3328     3544 1
    3166     2812     3004 1
    3167     3377     3574 1
    3168     1533     1809 1
    3169     2943     3219 1
    3170     2938     3235 1
    3171     3409     3505 1
    3172     1972     2188 1
    3173     1426     1570 1
    3174     2014     2290 1
    3175      108      372 1
    3176      499      919 1
    3177       85      457 1
    3178      565      829 1
    3179     3330     3659 1
    3180     2357     2525 1
    3181      522      851 1
    3182      571      835 1
    3183     1888     2080 1
    3184     2904     3096 1
    3185     1970     2186 1
    3186      505      817 1
    3187     1000     1300 1
    3188     2828     3044 1
    3189      501      921 1
    3190       96      288 1
    3191     1069     1345 1
    3192     2369     2789 1
    3193     1052     1247 1
    3194     2470     2767 1
    3195     3323     3587 1
    3196      400     1454 1
    3197     1498     1870 1
    3198     2010     2106 1
    3199     3404     3700 1
    3200     1058     1286 1
    3201     3340     3556 1
    3202     1481     1649 1
    3203     1519     1714 1
    3204     3761     3929 1
    3205      529      878 1
    3206      962     1382 1
    3207     3767     3983 1
    3208     2815     2983 1
    3209      509      773 1
    3210     2883     2991 1
    3211     3319     3583 1
    3212      149        5 1
    3213      107      371 1
    3214     1073     1349 1
    3215     1519     1790 1
    3216      982     1294 1
    3217     3320     3584 1
    3218     2479     2575 1
    3219      167       95 1
    3220     3344     3560 1
    3221     1877     2021 1
    3222     1420     1562 1
    3223     3802     4174 1
    3224       29      317 1
    3225     1032     1200 1
    3226      115      211 1
    3227      580      848 1
    3228     2009     2213 1
    3229       32      320 1
    3230      589      897 1
    3231     3392     3664 1
    3232     2379     2668 1
    3233      536      752 1
    3234      103      199 1
    3235       38      327 1
    3236     2809     3027 1
    3237     1986     2202 1
    3238      126      422 1
    3239     3278     3889 1
    3240      499      715 1
    3241     3780     3996 1
    3242      952     1094 1
    3243     2911     3175 1
    3244     3309     3729 1
    3245     1477     1670 1
    3246     2483     2579 1
    3247     2441     2638 1
    3248     3351     3889 1
    3249     2005     2281 1
    3250     2932     3160 1
    3251      107      323 1
    3252     1913     2225 1
    3253     1987     2083 1
    3254     3833     4025 1
    3255       39      328 1
    3256      127      403 1
    3257     1454     1826 1
    3258     2841     3261 1
    3259     1054     1150 1
    3260      519      845 1
    3261      565      661 1
    3262     2896     3268 1
    3263     1543     1819 1
    3264     2897     3065 1
    3265     1057     1285 1
    3266     3763     3979 1
    3267     3835     4027 1
    3268     2349     2541 1
    3269     3308     3524 1
    3270     3358     3466 1
    3271     2829     3021 1
    3272     2920     3016 1
    3273     1926     2298 1
    3274     3332     3704 1
    3275     2399     2771 1
    3276     3882     4158 1
    3277       81      189 1
    3278     2872     3244 1
    3279     2920     3136 1
    3280     2011     2287 1
    3281     3863     3959 1
    3282     2869     3241 1
    3283     2152     2426 1
    3284     3403     3499 1
    3285     2341     2559 1
    3286     2968     3291 1
    3287      532      880 1
    3288     3393     3489 1
    3289     3814     4162 1
    3290     2422     2494 1
    3291     3338     3687 1
    3292     3334     3706 1
    3293     3297     3513 1
    3294      479      623 1
    3295      154       10 1
    3296     3839     4007 1
    3297     3867     4143 1
    3298     2351     2519 1
    3299     3800     4131 1
    3300       52      379 1
    3301      100      296 1
    3302      972     1236 1
    3303     3307     3571 1
    3304      999     2749 1
    3305     2916     3012 1
    3306     1482     1650 1
    3307      565      761 1
    3308     1927     2143 1
    3309     1512     1696 1
    3310      520      736 1
    3311     2031     2353 1
    3312       37      301 1
    3313     1073     1277 1
    3314      181       73 1
    3315      472     1154 1
    3316     3364     3736 1
    3317     3851     4035 1
    3318     1445     1757 1
    3319      523      739 1
    3320     3337     3553 1
    3321      548      656 1
    3322     3389     3485 1
    3323       42      354 1
    3324     1956     2124 1
    3325     2008     2316 1
    3326     3284     3500 1
    3327      976     2666 1
    3328       50      375 1
    3329      568      664 1
    3330      525      857 1
    3331     2437     2701 1
    3332     3871     4147 1
    3333     1985     2201 1
    3334     1419     1611 1
    3335     3789     4053 1
    3336      993     1365 1
    3337     3352     4011 1
    3338       69      369 1
    3339     2891     2963 1
    3340     2815     3031 1
    3341     3282     3498 1
    3342     2859     3075 1
    3343     2449     2645 1
    3344     1014     1086 1
    3345     3848     4112 1
    3346     2858     3183 1
    3347      474      690 1
    3348     1458     1674 1
    3349     1521     1737 1
    3350     2450     2666 1
    3351     2371     2635 1
    3352      492      684 1
    3353     1920     2184 1
    3354     1421     1613 1
    3355     3751     3943 1
    3356       65      365 1
    3357     1880     2072 1
    3358     3876     4152 1
    3359     2343     2560 1
    3360      115      386 1
    3361      582      678 1
    3362     1953     2061 1
    3363     3815     4031 1
    3364      584      856 1
    3365     1043     1307 1
    3366     2441     2705 1
    3367     1523     1739 1
    3368     2389     2605 1
    3369      608      884 1
    3370     2373     2637 1
    3371     3823     3931 1
    3372     2923     3194 1
    3373     2901     3069 1
    3374     2862     3191 1
    3375     2835     3122 1
    3376     1076     1352 1
    3377     1982     2078 1
    3378       60      276 1
    3379     2372     2636 1
    3380     3790     4102 1
    3381      984     1296 1
    3382     3283     3475 1
    3383     3881     4157 1
    3384     1496     1868 1
    3385      538      910 1
    3386     1438     1654 1
    3387     1916     2132 1
    3388      988     1315 1
    3389     1452     1716 1
    3390     1916     2180 1
    3391     1425     1593 1
    3392     1959     2030 1
    3393      488      656 1
    3394     1539     1743 1
    3395     2452     2720 1
    3396      110      326 1
    3397     3860     3956 1
    3398     3338     3710 1
    3399     1997     2293 1
    3400      161       89 1
    3401     2885     2993 1
    3402     1918     2134 1
    3403     1910     2126 1
    3404     1536     3234 1
    3405     3781     4093 1
    3406     1914     2178 1
    3407     3278     3470 1
    3408     2412     2760 1
    3409     3385     3650 1
    3410     3781     4045 1
    3411     2412     2712 1
    3412     1509     1725 1
    3413     2369     2585 1
    3414      535      835 1
    3415     1937     2237 1
    3416     3370     3538 1
    3417     1051     1322 1
    3418     3852     4036 1
    3419     1909     2125 1
    3420      521      893 1
    3421     1992     2208 1
    3422     3802     4018 1
    3423       75      613 1
    3424      980     1292 1
    3425     2945     3221 1
    3426     3283     3451 1
    3427     1024     1396 1
    3428      579      775 1
    3429     2421     2493 1
    3430     3375     3571 1
    3431     3773     4037 1
    3432     2951     3047 1
    3433     3778     4042 1
    3434     1911     2223 1
    3435     3829     3997 1
    3436     1973     2237 1
    3437     1932     2280 1
    3438     3435     3757 1
    3439      946     1114 1
    3440      533      905 1
    3441     3807     4023 1
    3442      511      823 1
    3443      585      681 1
    3444     1457     1829 1
    3445     1445     1733 1
    3446     3785     4001 1
    3447      475      691 1
    3448      982     1198 1
    3449     1936     2152 1
    3450     2848     3064 1
    3451     3088     3362 1
    3452     3842     4058 1
    3453     1883     2075 1
    3454     2360     2504 1
    3455     3804     4176 1
    3456     2844     3264 1
    3457     2890     2998 1
    3458     1013     1085 1
    3459     1002     1374 1
    3460     1455     1827 1
    3461     3859     4054 1
    3462       98      314 1
    3463     2386     2698 1
    3464     2451     2667 1
    3465      984     1200 1
    3466      539      755 1
    3467     1459     1675 1
    3468     3761     3953 1
    3469     1543     1839 1
    3470     2850     3066 1
    3471     3787     4003 1
    3472     1928     2276 1
    3473     2952     3048 1
    3474     1935     3685 1
    3475     2429     2501 1
    3476     1544     1840 1
    3477     1483     1591 1
    3478      515      827 1
    3479     2910     3107 1
    3480      141      237 1
    3481      581      677 1
    3482     1079     1175 1
    3483     2438     2534 1
    3484     2894     3266 1
    3485     3812     4160 1
    3486       67      367 1
    3487      559      631 1
    3488     3789     4005 1
    3489     1932     2148 1
    3490      578      674 1
    3491     3417     3513 1
    3492     3824     3932 1
    3493     1459     1831 1
    3494      960     1104 1
    3495     1546     1750 1
    3496       50      266 1
    3497     3808     4180 1
    3498     1505     1721 1
    3499     1920     2136 1
    3500     2365     2581 1
    3501      101      317 1
    3502     1989     2262 1
    3503     1405     1597 1
    3504     3359     3467 1
    3505     3370     3562 1
    3506      539      911 1
    3507     2895     3085 1
    3508     1981     2197 1
    3509     2379     2595 1
    3510     1424     1616 1
    3511     3878     4082 1
    3512     1430     1850 1
    3513       35      299 1
    3514      487      631 1
    3515     3345     3645 1
    3516     1444     1660 1
    3517     1507     1723 1
    3518     2405     2621 1
    3519     1506     1703 1
    3520     3825     3993 1
    3521     3301     3565 1
    3522     2864     3195 1
    3523     2917     3182 1
    3524     3816     4164 1
    3525     2916     3180 1
    3526     1441     1657 1
    3527      136      340 1
    3528     1060     1336 1
    3529     1998     2094 1
    3530     1505     1702 1
    3531       88      256 1
    3532     3845     4042 1
    3533     1964     2156 1
    3534     3827     3995 1
    3535     1924     2271 1
    3536     2429     2597 1
    3537     1514     1710 1
    3538     3760     3902 1
    3539     2941     3037 1
    3540     1475     1823 1
    3541     2003     2300 1
    3542     2457     2553 1
    3543      142      238 1
    3544     2462     2690 1
    3545     2351     2543 1
    3546     2926     3142 1
    3547      474      618 1
    3548     1430     1694 1
    3549     2381     2669 1
    3550     3771     4058 1
    3551     1023     1213 1
    3552      512      800 1
    3553       40      304 1
    3554      507      723 1
    3555     3417     3693 1
    3556     3838     3910 1
    3557     1936     2284 1
    3558      100      316 1
    3559      995     1367 1
    3560     3286     3430 1
    3561     3793     4141 1
    3562     2013     2109 1
    3563     2458     2554 1
    3564     3418     3694 1
    3565     2371     2587 1
    3566     3324     3540 1
    3567       51      377 1
    3568     1042     1138 1
    3569     1471     1819 1
    3570     2387     2699 1
    3571     2900     2972 1
    3572     1928     2259 1
    3573     1468     1816 1
    3574     1892     2108 1
    3575     2355     2547 1
    3576     3812     4028 1
    3577      503      923 1
    3578       95      467 1
    3579     2846     3158 1
    3580     3832     4023 1
    3581        2      637 1
    3582     1045     1261 1
    3583     1513     1729 1
    3584     2890     2962 1
    3585     1526     1754 1
    3586      469      661 1
    3587      606      882 1
    3588     2361     2553 1
    3589     2950     3245 1
    3590     2434     2806 1
    3591     2879     3251 1
    3592      133      441 1
    3593     2905     3101 1
    3594      991     1207 1
    3595     1921     2137 1
    3596     1515     1731 1
    3597       16      208 1
    3598     2369     2657 1
    3599     1888     2102 1
    3600     3789     4101 1
    3601     1078     1282 1
    3602     2443     2539 1
    3603     3826     3898 1
    3604     1447     1759 1
    3605     1068     1296 1
    3606     1963     2155 1
    3607     1042     1258 1
    3608     1475     1775 1
    3609      564      636 1
    3610      998     1370 1
    3611     2816     2960 1
    3612     2917     3133 1
    3613     3315     3579 1
    3614      140      236 1
    3615     1251     2365 1
    3616     1040     1256 1
    3617     3779     4067 1
    3618      587      862 1
    3619      484      650 1
    3620      177        9 1
    3621     2850     3138 1
    3622     1996     2224 1
    3623     3763     3931 1
    3624      491      683 1
    3625      128      224 1
    3626     3801     4173 1
    3627     3277     3469 1
    3628       77      185 1
    3629      511      775 1
    3630     3365     3437 1
    3631     1925     2253 1
    3632      591      899 1
    3633     3806     4106 1
    3634     1931     2265 1
    3635     2891     3083 1
    3636       35      251 1
    3637     1023     1395 1
    3638     2478     2754 1
    3639      556      724 1
    3640     1416     1632 1
    3641     3307     3727 1
    3642     1058     1154 1
    3643     2862     3078 1
    3644     1465     1814 1
    3645     1880     2096 1
    3646     3294     3510 1
    3647     1536     1812 1
    3648     2455     2650 1
    3649      164       20 1
    3650     2893     3061 1
    3651     1425     1569 1
    3652     1517     1786 1
    3653     2926     3110 1
    3654     2922     3192 1
    3655     2865     3237 1
    3656     2348     2540 1
    3657     2920     3116 1
    3658     3811     4159 1
    3659     1983     2079 1
    3660     1442     1706 1
    3661     2840     3104 1
    3662      523      853 1
    3663     1448     1760 1
    3664     1492     1683 1
    3665     2477     2773 1
    3666     3344     3692 1
    3667     2820     2964 1
    3668     2350     2542 1
    3669        4      686 1
    3670     1531     1759 1
    3671     1563     1957 1
    3672     2933     3029 1
    3673     2826     2970 1
    3674     1067     1295 1
    3675     2349     2565 1
    3676     3322     3610 1
    3677     2918     3184 1
    3678     2943     3039 1
    3679     3882     4178 1
    3680       56      428 1
    3681     1415     1583 1
    3682      485      653 1
    3683     1452     1764 1
    3684     2421     2589 1
    3685     2873     3173 1
    3686     3782     4071 1
    3687     3386     3602 1
    3688     3854     4070 1
    3689     2924     3140 1
    3690     3812     4112 1
    3691      522      738 1
    3692     3408     3636 1
    3693      973     1237 1
    3694      985     1333 1
    3695     3349     3457 1
    3696     3801     4133 1
    3697      473      689 1
    3698     1014     1206 1
    3699     2359     2575 1
    3700     3312     3528 1
    3701      114      330 1
    3702     2387     2675 1
    3703     1069     1165 1
    3704     1965     2037 1
    3705     1029     1221 1
    3706     2383     2647 1
    3707     1057     1365 1
    3708     3888     4092 1
    3709     3873     4149 1
    3710     1409     1553 1
    3711     3295     3511 1
    3712     1979     2163 1
    3713     2887     3079 1
    3714      979     1267 1
    3715     2453     2649 1
    3716     3791     4103 1
    3717     2375     2639 1
    3718     3777     4041 1
    3719     2429     2621 1
    3720      135      411 1
    3721     1542     1838 1
    3722     1465     1837 1
    3723      504      768 1
    3724     2848     3160 1
    3725     2851     3067 1
    3726     2826     3018 1
    3727      977     1265 1
    3728     3846     4110 1
    3729      955     1123 1
    3730      971     1391 1
    3731     3793     4117 1
    3732      502      718 1
    3733     2951     3155 1
    3734       74      242 1
    3735     3808     4156 1
    3736      590      866 1
    3737     2912     3176 1
    3738     1056     1332 1
    3739      480      696 1
    3740     1919     2183 1
    3741     2365     2629 1
    3742     1929     2301 1
    3743     3750     3894 1
    3744     3395     3611 1
    3745     2424     2616 1
    3746       21      213 1
    3747      940     1132 1
    3748      520      847 1
    3749     2903     3071 1
    3750       12      228 1
    3751     2371     2659 1
    3752     3372     3744 1
    3753     3828     3936 1
    3754     3787     4051 1
    3755     1449     1761 1
    3756     1874     2557 1
    3757     1889     2105 1
    3758     2437     2653 1
    3759       20      188 1
    3760     1058     1334 1
    3761      478      694 1
    3762     2447     2663 1
    3763       46      310 1
    3764     1461     1833 1
    3765     2855     3071 1
    3766     2927     3202 1
    3767     1989     2205 1
    3768     3381     3565 1
    3769     3282     3474 1
    3770     3397     3625 1
    3771     3337     3709 1
    3772      509      725 1
    3773     3322     3634 1
    3774     3818     4012 1
    3775     1445     1709 1
    3776     2476     2572 1
    3777     2931     3239 1
    3778     1915     2179 1
    3779     1003     1351 1
    3780     3837     3909 1
    3781      611      815 1
    3782      996     1331 1
    3783     1982     2198 1
    3784     3801     4017 1
    3785     1036     1300 1
    3786     2413     2606 1
    3787     2009     2105 1
    3788     1981     2246 1
    3789     3320     3632 1
    3790      280      554 1
    3791      939     1084 1
    3792     1998     2294 1
    3793     3771     4191 1
    3794     1420     1634 1
    3795     1993     2301 1
    3796     1508     1724 1
    3797     2368     2584 1
    3798     1918     2206 1
    3799     1929     2261 1
    3800     3803     4019 1
    3801      124      432 1
    3802     1014     1182 1
    3803     2465     2561 1
    3804     3800     4148 1
    3805       30      294 1
    3806      576      760 1
    3807     1049     1318 1
    3808      488      704 1
    3809       39      351 1
    3810     1022     1190 1
    3811     2991     3289 1
    3812      980     1268 1
    3813     2456     2651 1
    3814     3414     3618 1
    3815     1008     1356 1
    3816     1516     1612 1
    3817     1971     2067 1
    3818     2940     3036 1
    3819     3326     3698 1
    3820     2011     2215 1
    3821     1967     2339 1
    3822     2467     2743 1
    3823     3329     3701 1
    3824      535      751 1
    3825      980     1196 1
    3826     1456     1672 1
    3827     2455     2671 1
    3828     1483     1675 1
    3829     2362     2578 1
    3830     3315     3531 1
    3831      524      855 1
    3832     2408     2756 1
    3833      506      770 1
    3834     3380     3596 1
    3835     3435     3829 1
    3836     2827     3019 1
    3837     3375     3591 1
    3838     2822     3014 1
    3839     1053     1149 1
    3840     1552     2881 1
    3841     3389     3585 1
    3842     3831     4021 1
    3843     2472     2568 1
    3844     1913     2129 1
    3845     2921     3137 1
    3846     1066     1342 1
    3847     1530     1826 1
    3848     2879     3227 1
    3849       79      187 1
    3850       45      261 1
    3851     1004     1220 1
    3852     2438     2702 1
    3853     1065     1341 1
    3854     1531     1827 1
    3855     2471     2747 1
    3856      595      871 1
    3857     3305     3725 1
    3858     3371     3743 1
    3859     1450     1762 1
    3860     1895     2087 1
    3861     3356     3548 1
    3862     2478     2682 1
    3863     2818     3010 1
    3864     1980     2244 1
    3865       48      336 1
    3866      994     1342 1
    3867     3363     3735 1
    3868      477      621 1
    3869     2854     3142 1
    3870     3791     4079 1
    3871        4      638 1
    3872     3309     3573 1
    3873     1018     1210 1
    3874     3838     4030 1
    3875     2373     2793 1
    3876     2406     2778 1
    3877        7      199 1
    3878      596      872 1
    3879     2907     3123 1
    3880     2425     2593 1
    3881     2929     3205 1
    3882     2866     3082 1
    3883     2918     3114 1
    3884       59      393 1
    3885      599      875 1
    3886     2400     2748 1
    3887     3367     3739 1
    3888     3838     4210 1
    3889     1520     1736 1
    3890     1031     1103 1
    3891     1435     1699 1
    3892     2833     3097 1
    3893     1067     1364 1
    3894     2652     3858 1
    3895       89      257 1
    3896      530      902 1
    3897       94      286 1
    3898     2386     2650 1
    3899     1491     1681 1
    3900      119      303 1
    3901      487      703 1
    3902     1964     2132 1
    3903     2402     2774 1
    3904      184      483 1
    3905     1498     1570 1
    3906     1475     1691 1
    3907     1896     2040 1
    3908     1961     2153 1
    3909     1480     2139 1
    3910     1517     1613 1
    3911     2421     2613 1
    3912     1476     1848 1
    3913     3869     4165 1
    3914     1044     1260 1
    3915     3803     4137 1
    3916     1428     1596 1
    3917     2835     3255 1
    3918     2014     2110 1
    3919     2184     3390 1
    3920     3887     4091 1
    3921     2460     2556 1
    3922     1980     2164 1
    3923     1514     1780 1
    3924     2856     3120 1
    3925     1485     1557 1
    3926     2381     2693 1
    3927      495      915 1
    3928      151       79 1
    3929      138      434 1
    3930      504      924 1
    3931     3760     3952 1
    3932     3305     3593 1
    3933      508      772 1
    3934     2877     3225 1
    3935     1988     2183 1
    3936     1936     2308 1
    3937      102      198 1
    3938     2878     3178 1
    3939      700      951 1
    3940     1939     2239 1
    3941     1441     1753 1
    3942     2435     2807 1
    3943     2880     3252 1
    3944     1496     1664 1
    3945     1878     2046 1
    3946     3770     4190 1
    3947      569      833 1
    3948      118      214 1
    3949     3348     3564 1
    3950       52      268 1
    3951     2896     3087 1
    3952      550      622 1
    3953     3876     4104 1
    3954     1896     2088 1
    3955     3357     3549 1
    3956     3855     4122 1
    3957       44      332 1
    3958     2887     2959 1
    3959     3783     4072 1
    3960      492      708 1
    3961     3373     3569 1
    3962     1471     1771 1
    3963     2874     3222 1
    3964      137      433 1
    3965     2187     3301 1
    3966     2374     2590 1
    3967      505      769 1
    3968      117      301 1
    3969       27      243 1
    3970     1999     2275 1
    3971     2013     2289 1
    3972     1943     2243 1
    3973     1036     1252 1
    3974     2879     3095 1
    3975     2471     2699 1
    3976      127      355 1
    3977     1000     1372 1
    3978     2390     2715 1
    3979     3774     4194 1
    3980       61      433 1
    3981     1041     1257 1
    3982     1035     1131 1
    3983     1071     1347 1
    3984     2367     2787 1
    3985     1053     1326 1
    3986     2400     2616 1
    3987     1986     2256 1
    3988     1963     2131 1
    3989     3361     3529 1
    3990      522      870 1
    3991      998     1347 1
    3992      957     1125 1
    3993     2816     2984 1
    3994      610      814 1
    3995     2897     3089 1
    3996      152        8 1
    3997     3344     3644 1
    3998     3745     3963 1
    3999       64      364 1
    4000     1497     1569 1
    4001     1436     1652 1
    4002     3886     4181 1
    4003     1046     1142 1
    4004      600     2298 1
    4005     2393     2765 1
    4006     3285     3429 1
    4007     2474     2750 1
    4008     1075     1351 1
    4009      157       14 1
    4010     1412     1580 1
    4011     2466     2694 1
    4012      588      772 1
    4013     3284     3428 1
    4014     2407     2623 1
    4015     1460     1808 1
    4016     1497     1689 1
    4017     3749     3917 1
    4018     1035     1251 1
    4019     2878     3094 1
    4020     3776     3992 1
    4021     1491     1562 1
    4022     3756     3948 1
    4023     3363     3434 1
    4024     2363     2579 1
    4025     2383     2695 1
    4026      557      749 1
    4027     1008     1380 1
    4028      541      734 1
    4029      604      700 1
    4030      518      890 1
    4031      567      783 1
    4032     2482     2777 1
    4033      499      787 1
    4034      947     1091 1
    4035     1973     2170 1
    4036     3378     3575 1
    4037     1927     2275 1
    4038       17      209 1
    4039     2425     2797 1
    4040      112      380 1
    4041     1889     2081 1
    4042     1034     1130 1
    4043     1513     1778 1
    4044     1544     1748 1
    4045     3405     3501 1
    4046       89      281 1
    4047     1934     2283 1
    4048      125      221 1
    4049      601      805 1
    4050     1980     2196 1
    4051     2345     2561 1
    4052     2947     3243 1
    4053     2375     2795 1
    4054      945     1089 1
    4055     1523     1707 1
    4056     2952     3248 1
    4057        5      197 1
    4058     2842     3262 1
    4059     1074     1370 1
    4060     1942     2158 1
    4061     2348     2564 1
    4062     3811     4183 1
    4063     1901     2189 1
    4064      564      756 1
    4065       25      445 1
    4066     1080     1356 1
    4067     3314     3626 1
    4068     2468     2764 1
    4069     2929     3157 1
    4070     2874     3174 1
    4071     3851     4115 1
    4072     2417     2585 1
    4073     3414     3690 1
    4074      515      731 1
    4075     1435     1651 1
    4076     2350     2566 1
    4077     1908     2196 1
    4078      562      730 1
    4079     2885     2957 1
    4080     3760     3926 1
    4081     2462     2738 1
    4082     2936     3212 1
    4083       27      447 1
    4084      549      657 1
    4085     1076     1172 1
    4086     2869     3218 1
    4087      947     1139 1
    4088     2930     3026 1
    4089     2875     3223 1
    4090       40      352 1
    4091     1442     1754 1
    4092     2351     2495 1
    4093      978     1194 1
    4094     1013     1205 1
    4095     2360     2576 1
    4096     1897     2161 1
    4097     1509     1693 1
    4098     1070     1166 1
    4099     2878     3226 1
    4100      586      770 1
    4101     1478     1551 1
    4102       41      329 1
    4103     2845     3061 1
    4104     2883     3051 1
    4105     1415     1559 1
    4106     1957     2125 1
    4107     1538     1634 1
    4108     2484     2688 1
    4109     1895     2039 1
    4110      126      402 1
    4111     3885     4089 1
    4112      945     1137 1
    4113     1426     1642 1
    4114     2889     3057 1
    4115      510      822 1
    4116     1886     2053 1
    4117     2837     3125 1
    4118      973     1261 1
    4119      972     1392 1
    4120     3857     4053 1
    4121     1913     2201 1
    4122     1541     1745 1
    4123     2823     3015 1
    4124     1947     2605 1
    4125     1922     2138 1
    4126     2440     2636 1
    4127     2887     3055 1
    4128     1884     2076 1
    4129     1534     1630 1
    4130     1541     1817 1
    4131     2899     3067 1
    4132     2406     2706 1
    4133     2354     2497 1
    4134     1511     1775 1
    4135     2385     2649 1
    4136     2846     3110 1
    4137     3783     4047 1
    4138     3788     4100 1
    4139     2449     2714 1
    4140      566      782 1
    4141     2393     2609 1
    4142     2861     3077 1
    4143      480      648 1
    4144     3332     3680 1
    4145      608      904 1
    4146     2826     3042 1
    4147     3317     3581 1
    4148     3868     3964 1
    4149      469      639 1
    4150     3753     3969 1
    4151     2830     3022 1
    4152     2364     2556 1
    4153      502      790 1
    4154     3857     4126 1
    4155       73      266 1
    4156     1942     2314 1
    4157     1874     2509 1
    4158     2819     2987 1
    4159     3342     3558 1
    4160      577      673 1
    4161     3821     3929 1
    4162     1441     1729 1
    4163     1440     1860 1
    4164      962     1249 1
    4165     2475     2679 1
    4166     1040     1304 1
    4167     1532     1828 1
    4168     3399     3707 1
    4169      121      397 1
    4170     1926     2142 1
    4171     3554     3829 1
    4172       20      212 1
    4173     3319     3631 1
    4174     3798     4127 1
    4175      144      240 1
    4176     1910     2174 1
    4177     2817     3009 1
    4178     2401     2750 1
    4179        2      613 1
    4180       96      168 1
    4181       78      270 1
    4182     2882     3076 1
    4183     3749     3965 1
    4184     1406     2041 1
    4185      498      762 1
    4186     1928     2144 1
    4187     3396     3612 1
    4188     2389     2761 1
    4189     1938     2286 1
    4190     3336     3684 1
    4191     3760     3974 1
    4192     1884     2028 1
    4193       28      244 1
    4194     1443     1755 1
    4195      532      748 1
    4196      977     1193 1
    4197     2347     2491 1
    4198     1074     1278 1
    4199     2399     2615 1
    4200      470     1081 1
    4201      179       11 1
    4202     1963     2335 1
    4203     1024     1192 1
    4204       63      435 1
    4205      531      747 1
    4206     2905     3121 1
    4207      939     1108 1
    4208     2378     2690 1
    4209     1446     1734 1
    4210     2852     3140 1
    4211     3789     4077 1
    4212     3374     3638 1
    4213     1877     2093 1
    4214     3338     3554 1
    4215     1521     1794 1
    4216     1912     2224 1
    4217     3872     4148 1
    4218     1060     1156 1
    4219     1910     2199 1
    4220     1991     2175 1
    4221     1894     2038 1
    4222     3856     4052 1
    4223     2398     2746 1
    4224      652      951 1
    4225     2921     3117 1
    4226     1005     1377 1
    4227      574      758 1
    4228      985     1201 1
    4229     1879     2071 1
    4230     2468     2564 1
    4231       66      366 1
    4232     1481     1589 1
    4233      127      223 1
    4234     3323     3539 1
    4235      132      408 1
    4236      583      679 1
    4237     1954     2062 1
    4238     2471     2567 1
    4239     3766     3958 1
    4240     2934     3162 1
    4241     1892     2036 1
    4242     3436     3830 1
    4243     1533     1629 1
    4244     2457     2730 1
    4245     2407     2707 1
    4246     2001     2229 1
    4247       19      187 1
    4248     2419     2491 1
    4249     3306     3570 1
    4250     3331     3679 1
    4251      573      757 1
    4252     2427     2799 1
    4253     2462     2770 1
    4254     2827     3043 1
    4255     2934     3230 1
    4256     3831     3902 1
    4257      123      219 1
    4258      579      675 1
    4259       83      191 1
    4260     2914     3178 1
    4261      946     1162 1
    4262      471      640 1
    4263     2445     2629 1
    4264     2006     2314 1
    4265     2870     3086 1
    4266     3855     3951 1
    4267       28      448 1
    4268     1027     1099 1
    4269     3864     4140 1
    4270      514      778 1
    4271     1941     2157 1
    4272     2386     2602 1
    4273      129      357 1
    4274      540      888 1
    4275     1492     1864 1
    4276     1485     1677 1
    4277       48      312 1
    4278      937     1107 1
    4279     2813     3029 1
    4280     2854     3118 1
    4281      995     1343 1
    4282     1503     1599 1
    4283     3394     3578 1
    4284      513      801 1
    4285      172        3 1
    4286      117      390 1
    4287     2940     3216 1
    4288       38      302 1
    4289     1045     1141 1
    4290     1513     1609 1
    4291     2450     2546 1
    4292     2382     2646 1
    4293     1058     1366 1
    4294     3769     3985 1
    4295     3383     3479 1
    4296     3851     3947 1
    4297     1898     2162 1
    4298     1428     1620 1
    4299     2830     2974 1
    4300     1435     1855 1
    4301      540      756 1
    4302     2404     2776 1
    4303     1987     2182 1
    4304     1473     1821 1
    4305     3302     3566 1
    4306     2946     3150 1
    4307     2405     2777 1
    4308     3782     4046 1
    4309     1484     1556 1
    4310     1484     1676 1
    4311     2353     2545 1
    4312     2402     2751 1
    4313     1482     1590 1
    4314      556      928 1
    4315     1482     1554 1
    4316     1960     2151 1
    4317     1480     1648 1
    4318     2829     2997 1
    4319      560      632 1
    4320     1935     2307 1
    4321     2452     2668 1
    4322     3817     3985 1
    4323     1050     1266 1
    4324     1065     1161 1
    4325     2856     3144 1
    4326     3849     4113 1
    4327     3328     3655 1
    4328     3416     3692 1
    4329     3831     4203 1
    4330     1040     1136 1
    4331     1063     1159 1
    4332     1469     1817 1
    4333     1010     1118 1
    4334      954     1170 1
    4335     1873     2065 1
    4336     3281     3497 1
    4337     1048     1264 1
    4338     3319     3607 1
    4339      995     1211 1
    4340     2357     2549 1
    4341     3814     4030 1
    4342     1486     1594 1
    4343      562      634 1
    4344     1080     1176 1
    4345      780     1986 1
    4346     3397     3705 1
    4347      471      663 1
    4348     2925     3198 1
    4349     3400     3676 1
    4350        2      194 1
    4351      493      757 1
    4352      572      836 1
    4353     1971     2235 1
    4354     1539     1635 1
    4355      133      229 1
    4356       33      297 1
    4357     1916     2204 1
    4358      532      832 1
    4359     2434     2506 1
    4360      584      779 1
    4361     2937     3233 1
    4362      112      328 1
    4363     2367     2583 1
    4364      163       19 1
    4365     1969     2233 1
    4366     1451     1739 1
    4367       62      434 1
    4368     3799     4129 1
    4369     1940     2288 1
    4370      108      292 1
    4371      534      834 1
    4372     1888     2054 1
    4373     2430     2598 1
    4374     1440     1656 1
    4375     2401     2617 1
    4376     3323     3635 1
    4377      159      553 1
    4378     2348     2492 1
    4379     3770     3986 1
    4380     2397     2769 1
    4381     3281     3425 1
    4382       31      451 1
    4383      576      840 1
    4384     2899     3091 1
    4385     2915     3011 1
    4386     3366     3558 1
    4387       29      293 1
    4388     2828     2996 1
    4389     1084     2413 1
    4390     2864     3236 1
    4391     2905     3169 1
    4392      548      620 1
    4393      506      722 1
    4394       49      421 1
    4395     3408     3684 1
    4396     3407     3635 1
    4397      572      788 1
    4398     3785     4097 1
    4399     2453     2669 1
    4400     2481     2685 1
    4401     2921     3190 1
    4402      602      698 1
    4403     1884     2100 1
    4404      122      398 1
    4405     3795     4142 1
    4406      105      321 1
    4407      115      331 1
    4408     2463     2691 1
    4409     1460     1832 1
    4410     2838     3126 1
    4411     1041     1137 1
    4412     3376     3472 1
    4413     2429     2801 1
    4414     1874     2066 1
    4415     1466     1815 1
    4416     1494     1686 1
    4417     1974     2171 1
    4418     2426     2798 1
    4419     3322     3538 1
    4420     3288     3504 1
    4421     2915     3099 1
    4422      109      305 1
    4423     3346     3694 1
    4424     2968     3362 1
    4425     3412     3688 1
    4426      607      903 1
    4427     2942     3218 1
    4428     2349     2517 1
    4429      563      635 1
    4430     1049     1145 1
    4431     1495     1663 1
    4432     1564     1958 1
    4433     3396     3672 1
    4434     2863     3193 1
    4435     3297     3465 1
    4436       19      235 1
    4437       17      185 1
    4438     1455     1802 1
    4439     2346     2562 1
    4440      972     1188 1
    4441     1439     1655 1
    4442     1409     1625 1
    4443     1522     1706 1
    4444     1415     1607 1
    4445     1923     2270 1
    4446     3333     3549 1
    4447     3823     3895 1
    4448     1007     1379 1
    4449     1944     2316 1
    4450      477      669 1
    4451      583      799 1
    4452     3761     3977 1
    4453      543     1201 1
    4454     1044     1228 1
    4455      943     1135 1
    4456     2056     2355 1
    4457     1077     1173 1
    4458     3405     3681 1
    4459     1901     2165 1
    4460     2011     2307 1
    4461     3880     4084 1
    4462     2464     2740 1
    4463     3382     3646 1
    4464     3818     3986 1
    4465     3335     3669 1
    4466     1907     2327 1
    4467      490      682 1
    4468     1435     1723 1
    4469     3556     3830 1
    4470       52      399 1
    4471     3353     3425 1
    4472     3416     3620 1
    4473     3296     3512 1
    4474      139      415 1
    4475     2452     2648 1
    4476      947     1115 1
    4477     1407     1599 1
    4478     2430     2802 1
    4479      576      792 1
    4480     3754     3970 1
    4481      987     1359 1
    4482       55      403 1
    4483     3824     3992 1
    4484      981     1197 1
    4485     2444     2640 1
    4486     1963     2035 1
    4487     2910     3174 1
    4488     1415     1631 1
    4489     3796     4012 1
    4490     2374     2662 1
    4491     2458     2732 1
    4492      135      231 1
    4493     2397     2613 1
    4494     1977     2161 1
    4495      122      218 1
    4496     1028     1220 1
    4497      978     1290 1
    4498     3779     4043 1
    4499     2413     2581 1
    4500     3804     4139 1
    4501     1930     2302 1
    4502     1512     1728 1
    4503     2872     3220 1
    4504     1018     1090 1
    4505     3310     3730 1
    4506      120      336 1
    4507       15      207 1
    4508     1463     1811 1
    4509     2419     2611 1
    4510      942     1110 1
    4511     1056     1272 1
    4512     2899     3271 1
    4513      991     1339 1
    4514     1988     2084 1
    4515     2397     2729 1
    4516     2909     3173 1
    4517      953     1121 1
    4518       22      238 1
    4519     1076     1280 1
    4520      106      322 1
    4521     3855     4051 1
    4522     2410     2782 1
    4523     1066     1294 1
    4524     2433     2505 1
    4525     2908     3172 1
    4526     1440     1728 1
    4527     1546     1841 1
    4528     3359     3551 1
    4529     2370     2658 1
    4530     1001     1301 1
    4531     2438     2654 1
    4532     2919     3115 1
    4533     3779     4199 1
    4534      586      860 1
    4535      480      624 1
    4536     1446     1710 1
    4537     2844     3108 1
    4538     1891     2107 1
    4539     1537     1845 1
    4540     3382     3478 1
    4541      476      644 1
    4542       40      256 1
    4543     1923     2295 1
    4544     2899     2971 1
    4545      607      811 1
    4546      502      766 1
    4547      946     1090 1
    4548     1942     2290 1
    4549     2443     2707 1
    4550       77      269 1
    4551      528      744 1
    4552      973     1189 1
    4553      173        5 1
    4554      552      660 1
    4555     2906     3002 1
    4556     2356     2522 1
    4557     3293     3461 1
    4558       29      245 1
    4559     1949     2021 1
    4560     3417     3621 1
    4561     3804     4020 1
    4562     2921     3017 1
    4563     1959     2331 1
    4564      966     1254 1
    4565     2924     3119 1
    4566     2363     2507 1
    4567     2810     3493 1
    4568      975     1191 1
    4569     1528     1756 1
    4570     1412     1628 1
    4571     1876     2486 1
    4572     2897     3269 1
    4573     2392     2719 1
    4574     3868     4144 1
    4575     1032     1224 1
    4576     2430     2622 1
    4577     3379     3643 1
    4578     1061     1157 1
    4579     1891     2059 1
    4580     3352     3520 1
    4581       43      355 1
    4582     3831     3999 1
    4583      178       10 1
    4584     1062     1158 1
    4585     3870     4146 1
    4586      968     1232 1
    4587     3846     4043 1
    4588     3297     3441 1
    4589      164       92 1
    4590     3808     4024 1
    4591     2483     2687 1
    4592     3346     3718 1
    4593     1012     1180 1
    4594     1537     1633 1
    4595     2416     2524 1
    4596     3839     3911 1
    4597      958     1102 1
    4598     3885     3981 1
    4599      526      874 1
    4600     2359     2503 1
    4601     2852     3068 1
    4602     1523     1619 1
    4603      490      658 1
    4604       76      735 1
    4605     1418     1610 1
    4606     1894     2062 1
    4607     3355     3523 1
    4608     2461     2769 1
    4609     2003     2231 1
    4610     2840     3056 1
    4611      602      910 1
    4612      937     1129 1
    4613      114      384 1
    4614     1526     1802 1
    4615       38      254 1
    4616     3880     4188 1
    4617      528      900 1
    4618     3859     4075 1
    4619     1000     1216 1
    4620     3788     4052 1
    4621     1892     2060 1
    4622     3353     3521 1
    4623     3398     3626 1
    4624     3394     3490 1
    4625     1444     1708 1
    4626     2424     2592 1
    4627     1075     1371 1
    4628     2842     3058 1
    4629     1450     1714 1
    4630     1528     1836 1
    4631      561      729 1
    4632     2002     2098 1
    4633       19      211 1
    4634      111      307 1
    4635     2841     3105 1
    4636     1443     1707 1
    4637       47      359 1
    4638     1067     1343 1
    4639     1529     1825 1
    4640      150       78 1
    4641     3331     3703 1
    4642     2811     2956 1
    4643       66      282 1
    4644     1489     1657 1
    4645     3844     4040 1
    4646       65      281 1
    4647     2435     2627 1
    4648     1491     1863 1
    4649      945     1161 1
    4650     1588     1887 1
    4651      559      751 1
    4652     3863     4138 1
    4653       90      282 1
    4654      996     1344 1
    4655     2372     2792 1
    4656        1      219 1
    4657     3859     4130 1
    4658       68      284 1
    4659     3885     4161 1
    4660     1953     2145 1
    4661      960     1152 1
    4662      107      291 1
    4663     3371     3539 1
    4664     3323     3611 1
    4665      497      785 1
    4666      153        9 1
    4667     1984     2180 1
    4668     1982     2248 1
    4669     2949     3153 1
    4670       92      284 1
    4671     1921     2269 1
    4672     3334     3667 1
    4673     1474     1846 1
    4674     2859     3231 1
    4675     3369     3741 1
    4676        3      220 1
    4677        1      193 1
    4678      937     1083 1
    4679     3813     4113 1
    4680      941     1157 1
    4681     1843     2949 1
    4682     1982     2178 1
    4683      974     1238 1
    4684     3762     3906 1
    4685     3873     4169 1
    4686     3886     4090 1
    4687      497      917 1
    4688      560      932 1
    4689     2403     2775 1
    4690       55      385 1
    4691     2010     2214 1
    4692      937     1155 1
    4693     2422     2530 1
    4694     3386     3482 1
    4695     1932     2267 1
    4696     1011     1179 1
    4697      990     1362 1
    4698     2442     2538 1
    4699     2902     3274 1
    4700     3778     4198 1
    4701     2851     3139 1
    4702     1428     1644 1
    4703     3856     4072 1
    4704      868     1922 1
    4705      547      739 1
    4706     1051     1267 1
    4707     1465     1681 1
    4708     3369     3561 1
    4709     1406     2017 1
    4710     2459     2555 1
    4711      506      795 1
    4712     3832     4204 1
    4713     1025     1097 1
    4714     1884     2052 1
    4715     2949     3045 1
    4716     2900     3272 1
    4717       87      459 1
    4718      978     1242 1
    4719     1522     1738 1
    4720     2382     2598 1
    4721     2841     3057 1
    4722      110      306 1
    4723     3824     4016 1
    4724     1049     1265 1
    4725      699      949 1
    4726     1487     1559 1
    4727     2928     3024 1
    4728     1914     2226 1
    4729     2845     3157 1
    4730      570      767 1
    4731     1958     2126 1
    4732     1879     2047 1
    4733     2856     3168 1
    4734     1517     1733 1
    4735     1424     1640 1
    4736     2477     2681 1
    4737     3290     3505 1
    4738     2004     3702 1
    4739     1003     1303 1
    4740     1461     1677 1
    4741      134      230 1
    4742     2828     3020 1
    4743       97      293 1
    4744      486      630 1
    4745      118      302 1
    4746     2939     3167 1
    4747     2450     2716 1
    4748     2460     2736 1
    4749      104      320 1
    4750     2947     3223 1
    4751     3285     3453 1
    4752      573      837 1
    4753     3798     4170 1
    4754     3311     3599 1
    4755     3873     4101 1
    4756     1038     1302 1
    4757     3342     3642 1
    4758     3411     3615 1
    4759     1528     1624 1
    4760     1939     2287 1
    4761     3363     3553 1
    4762     1995     2303 1
    4763     3872     4100 1
    4764     1037     1301 1
    4765     1952     2024 1
    4766     1953     2121 1
    4767      575      839 1
    4768      606      810 1
    4769     2483     2759 1
    4770      560      728 1
    4771     2832     3000 1
    4772      628      951 1
    4773     3340     3640 1
    4774     2881     3074 1
    4775     2860     3232 1
    4776     1448     1712 1
    4777     1010     1204 1
    4778      486      702 1
    4779      574      838 1
    4780     1447     1711 1
    4781     2898     3090 1
    4782     2394     2723 1
    4783     3307     3595 1
    4784      579      795 1
    4785     2936     3164 1
    4786      556     2029 1
    4787      123      399 1
    4788     1076     1372 1
    4789     1034     1250 1
    4790     2877     3093 1
    4791     1924     2251 1
    4792      535      883 1
    4793     1966     2038 1
    4794     3393     3666 1
    4795     3340     3712 1
    4796     2925     3141 1
    4797      963     1383 1
    4798     3745     3915 1
    4799     3391     3662 1
    4800      153       81 1
    4801       61      277 1
    4802      473      665 1
    4803     1410     1602 1
    4804     2395     2725 1
    4805     1453     1777 1
    4806     1481     1553 1
    4807     3380     3476 1
    4808     1037     1133 1
    4809     2864     3212 1
    4810     3303     3590 1
    4811      129      425 1
    4812     2437     2633 1
    4813      127      423 1
    4814     1537     1813 1
    4815      551      623 1
    4816      534      750 1
    4817     2477     2753 1
    4818     1925     2273 1
    4819     2929     3025 1
    4820     1080     1284 1
    4821     3861     4077 1
    4822     1011     1119 1
    4823     2939     3236 1
    4824     3833     4001 1
    4825     1879     2095 1
    4826     2364     2580 1
    4827     3317     3533 1
    4828      593      869 1
    4829     2428     3901 1
    4830     2348     2516 1
    4831     1948     2607 1
    4832     1975     3573 1
    4833      483      675 1
    4834     3420     3516 1
    4835     2007     2283 1
    4836     2930     3158 1
    4837     3331     3661 1
    4838      108      324 1
    4839     2914     3098 1
    4840     3835     4003 1
    4841     3352     3890 1
    4842      110      376 1
    4843     1506     1722 1
    4844     1413     1629 1
    4845     2810     3002 1
    4846     2356     2498 1
    4847     2829     3045 1
    4848      136      444 1
    4849      487      655 1
    4850     1905     2193 1
    4851     1471     1843 1
    4852     3753     3897 1
    4853       99      295 1
    4854      541      649 1
    4855     3862     4136 1
    4856     3809     4109 1
    4857     1548     1644 1
    4858     2922     3018 1
    4859     3837     4005 1
    4860     3387     3654 1
    4861     1905     2169 1
    4862      585      858 1
    4863      527      875 1
    4864     1050     1146 1
    4865     2437     2533 1
    4866       91      283 1
    4867     2008     2284 1
    4868     2445     2541 1
    4869     2855     3167 1
    4870      519      735 1
    4871     1925     2141 1
    4872     1716     2922 1
    4873     2913     3097 1
    4874        9      201 1
    4875     1997     2093 1
    4876     2003     2279 1
    4877     2020     3349 1
    4878     1474     1774 1
    4879     2886     2994 1
    4880     3364     3555 1
    4881     3318     3582 1
    4882     3826     3934 1
    4883     3333     3665 1
    4884     1019     1211 1
    4885      583      778 1
    4886      568      764 1
    4887      512      728 1
    4888     1491     1659 1
    4889     2002     2278 1
    4890     2881     3049 1
    4891     3294     3486 1
    4892     3315     3604 1
    4893      520      892 1
    4894     2466     2762 1
    4895       57      405 1
    4896     2015     2111 1
    4897      103      319 1
    4898      105      289 1
    4899     1006     1222 1
    4900     3302     3518 1
    4901       48      264 1
    4902     1544     1640 1
    4903     3298     3442 1
    4904     2354     2521 1
    4905     2849     3137 1
    4906     2812     3422 1
    4907     2431     2503 1
    4908     3436     3759 1
    4909     1962     2034 1
    4910     1972     2068 1
    4911     1432     1696 1
    4912     3794     4166 1
    4913     2944     3148 1
    4914     3280     3890 1
    4915     2885     3053 1
    4916      136      412 1
    4917      543      711 1
    4918     3821     4013 1
    4919     2341     2533 1
    4920      521      737 1
    4921      577      793 1
    4922      489      705 1
    4923     2818     3034 1
    4924     1431     1695 1
    4925     3373     3637 1
    4926     1470     1818 1
    4927     1468     1840 1
    4928     1956     2028 1
    4929     1902     2190 1
    4930     2814     3006 1
    4931       75      243 1
    4932     3312     3576 1
    4933     3412     3508 1
    4934     2390     2762 1
    4935     3797     4013 1
    4936     2903     3275 1
    4937     1494     1662 1
    4938     1421     1589 1
    4939     2847     3159 1
    4940     1535     1832 1
    4941     3329     3657 1
    4942     1542     1818 1
    4943     1912     3602 1
    4944     1068     1164 1
    4945     1005     1305 1
    4946      130      427 1
    4947     1375     2481 1
    4948     2479     2775 1
    4949        5      221 1
    4950     1423     1591 1
    4951     3749     3893 1
    4952     2892     2964 1
    4953      993     1209 1
    4954     2439     2655 1
    4955      531      831 1
    4956     2414     2582 1
    4957     2480     2776 1
    4958      517      889 1
    4959     1904     2192 1
    4960     3798     4014 1
    4961     1971     2187 1
    4962     2410     2758 1
    4963     1505     1769 1
    4964     2941     3217 1
    4965     1922     2294 1
    4966     2898     2970 1
    4967     3769     4033 1
    4968     2007     2211 1
    4969     2343     2535 1
    4970     1078     1354 1
    4971      609      885 1
    4972      496      760 1
    4973     3792     4056 1
    4974      142      418 1
    4975      469      615 1
    4976      557      725 1
    4977      540      840 1
    4978      530      879 1
    4979      961     1381 1
    4980     3810     4026 1
    4981     2844     3132 1
    4982     3781     4069 1
    4983      575      671 1
    4984     1002     1350 1
    4985     1510     1606 1
    4986     2403     4153 1
    4987      558      726 1
    4988     3398     3674 1
    4989     2311     3417 1
    4990      521      869 1
    4991     3841     3937 1
    4992     1880     2024 1
    4993     2473     2749 1
    4994     3317     3629 1
    4995      948     1140 1
    4996     1540     1636 1
    4997     2008     2104 1
    4998     3875     3971 1
    4999     3384     3568 1
    5000     3805     4021 1
    5001       92      464 1
    5002     3349     3517 1
    5003     3773     4061 1
    5004     1009     1177 1
    5005     3758     3925 1
    5006     3866     3962 1
    5007      986     1311 1
    5008     1416     1584 1
    5009     3843     3939 1
    5010     2846     3062 1
    5011     1009     1117 1
    5012      964     1228 1
    5013     1909     2173 1
    5014     1446     1758 1
    5015      967     1183 1
    5016      967     1231 1
    5017      946     1138 1
    5018      533      881 1
    5019     1020     1188 1
    5020      965     1385 1
    5021     1462     1795 1
    5022     1914     2130 1
    5023     2396     2727 1
    5024     1499     1691 1
    5025     1006     1354 1
    5026     1514     1610 1
    5027     2377     2689 1
    5028     1063     1359 1
    5029     3790     4078 1
    5030     1024     1215 1
    5031      526      742 1
    5032     1026     1194 1
    5033     1542     1746 1
    5034     2819     3035 1
    5035     2481     2577 1
    5036     1891     2035 1
    5037     3330     3702 1
    5038     1985     2181 1
    5039     1413     1557 1
    5040     2385     2673 1
    5041      575      759 1
    5042     2346     2538 1
    5043     1985     2081 1
    5044      600      876 1
    5045     1062     1290 1
    5046     1882     2098 1
    5047     3376     3592 1
    5048     3784     4048 1
    5049     2818     2962 1
    5050     1503     1719 1
    5051     2409     2625 1
    5052     1927     2257 1
    5053     1900     2320 1
    5054     2473     2569 1
    5055     3395     3491 1
    5056      526      898 1
    5057      537      753 1
    5058     2837     3101 1
    5059     2819     2963 1
    5060      131      407 1
    5061      506      818 1
    5062     3327     3699 1
    5063      952     1144 1
    5064     2004     2280 1
    5065     2413     2521 1
    5066     3356     3464 1
    5067      521      849 1
    5068     3818     3891 1
    5069     1001     1217 1
    5070     1464     1680 1
    5071     3307     3523 1
    5072     3884     4180 1
    5073     1065     1361 1
    5074     2867     3239 1
    5075     2476     2680 1
    5076     1418     1633 1
    5077     2010     2286 1
    5078      520      867 1
    5079     3758     3973 1
    5080     3278     3961 1
    5081     3816     4188 1
    5082     1995     2091 1
    5083     3391     3487 1
    5084       22      190 1
    5085     2391     2607 1
    5086        8      224 1
    5087     1906     2194 1
    5088     2904     3072 1
    5089      574      670 1
    5090     1511     1607 1
    5091     2448     2544 1
    5092     3382     3566 1
    5093     3339     3639 1
    5094      510      726 1
@<TRIPOS>SUBSTRUCTURE
       1 RES             1 RESIDUE    0 **** ROOT      0
